Version 4
SHEET 1 880 680
WIRE 0 -96 -176 -96
WIRE 160 -96 0 -96
WIRE -176 -16 -176 -96
WIRE 0 0 0 -96
WIRE 160 0 160 -96
WIRE 160 96 160 80
WIRE 320 96 160 96
WIRE 464 96 320 96
WIRE -176 112 -176 64
WIRE 160 112 160 96
WIRE 464 128 464 96
WIRE 320 144 320 96
WIRE 0 160 0 80
WIRE 96 160 0 160
WIRE 160 256 160 208
WIRE 0 272 0 160
WIRE 320 304 320 208
WIRE 320 304 224 304
WIRE 464 304 464 208
WIRE 464 304 320 304
WIRE 464 352 464 304
WIRE 0 432 0 336
WIRE 160 432 160 352
FLAG 0 432 0
FLAG 160 432 0
FLAG 464 432 0
FLAG -176 112 0
SYMBOL npn 96 112 R0
SYMATTR InstName Q1
SYMATTR Value 2N3904
SYMBOL pnp 224 352 R180
SYMATTR InstName Q2
SYMATTR Value 2N3906
SYMBOL res 144 -16 R0
SYMATTR InstName R1
SYMATTR Value 680k
SYMBOL res -16 -16 R0
SYMATTR InstName R2
SYMATTR Value 100Meg
SYMBOL cap -16 272 R0
SYMATTR InstName C1
SYMATTR Value 68p
SYMBOL cap 304 144 R0
SYMATTR InstName C2
SYMATTR Value 22p
SYMBOL res 448 112 R0
SYMATTR InstName R3
SYMATTR Value 100Meg
SYMBOL res 448 336 R0
SYMATTR InstName R4
SYMATTR Value 100Meg
SYMBOL voltage -176 -32 R0
SYMATTR InstName V1
SYMATTR Value 1.8
TEXT -208 456 Left 2 !.tran 0 5s 0 1µs
TEXT -168 -184 Left 2 ;https://hackaday.io/project/203844-yet-another-ultra-low-power-led
