Version 4
SHEET 1 948 680
WIRE 208 0 -80 0
WIRE 320 0 208 0
WIRE 704 0 560 0
WIRE 784 0 704 0
WIRE 704 32 704 0
WIRE 208 64 208 0
WIRE 192 112 64 112
WIRE 320 112 320 80
WIRE 320 112 288 112
WIRE 352 112 320 112
WIRE 496 112 416 112
WIRE 560 112 560 80
WIRE 560 112 496 112
WIRE 704 112 704 96
WIRE 704 112 560 112
WIRE 704 128 704 112
WIRE 704 208 704 192
WIRE 784 208 784 80
WIRE 784 208 704 208
WIRE 784 224 784 208
WIRE -80 256 -80 80
WIRE 64 256 64 192
FLAG 64 256 0
FLAG 784 224 0
FLAG -80 256 0
FLAG 496 112 VOUT
SYMBOL voltage 64 96 R0
WINDOW 123 0 0 Left 0
WINDOW 39 0 0 Left 0
SYMATTR InstName V1
SYMATTR Value PULSE(0 3.3 0 1n 1n 5u 10u)
SYMBOL Parts_TCO\\FDV301N 288 64 R90
SYMATTR InstName U1
SYMBOL schottky 416 96 R90
WINDOW 0 0 32 VBottom 2
WINDOW 3 32 32 VTop 2
SYMATTR InstName D1
SYMATTR Value BAT54
SYMATTR Description Diode
SYMATTR Type diode
SYMBOL res 304 -16 R0
SYMATTR InstName R1
SYMATTR Value 2.7k
SYMBOL res 544 -16 R0
SYMATTR InstName R2
SYMATTR Value 2.7k
SYMBOL voltage 784 -16 R0
WINDOW 123 0 0 Left 0
WINDOW 39 24 124 Left 2
SYMATTR InstName V2
SYMATTR Value 3.3
SYMBOL voltage -80 -16 R0
SYMATTR InstName V3
SYMATTR Value 3.3
SYMBOL schottky 720 96 R180
WINDOW 0 24 64 Left 2
WINDOW 3 24 0 Left 2
SYMATTR InstName D2
SYMATTR Value BAT54
SYMATTR Description Diode
SYMATTR Type diode
SYMBOL schottky 720 192 R180
WINDOW 0 24 64 Left 2
WINDOW 3 24 0 Left 2
SYMATTR InstName D3
SYMATTR Value BAT54
SYMATTR Description Diode
SYMATTR Type diode
TEXT -114 280 Left 2 !.tran 100u
TEXT 200 -88 Left 2 ;R1 should be left out for optimal protection.\nIt can be left in to improve speed.
