Version 4
SHEET 1 932 680
WIRE 112 -672 -128 -672
WIRE 480 -672 208 -672
WIRE 608 -672 480 -672
WIRE 688 -672 608 -672
WIRE 800 -672 688 -672
WIRE 848 -672 800 -672
WIRE 608 -640 608 -672
WIRE 688 -640 688 -672
WIRE 848 -640 848 -672
WIRE 480 -624 480 -672
WIRE 192 -496 192 -624
WIRE 256 -496 192 -496
WIRE 256 -464 192 -464
WIRE 480 -464 480 -544
WIRE 480 -464 320 -464
WIRE 480 -432 480 -464
WIRE 608 -304 608 -576
WIRE 688 -304 688 -576
WIRE 848 -304 848 -560
WIRE 192 -288 192 -464
WIRE 416 -288 192 -288
WIRE 480 -288 480 -352
WIRE 480 -288 416 -288
WIRE 416 -160 416 -208
WIRE -128 16 -128 -672
WIRE -48 16 -128 16
WIRE 112 16 -48 16
WIRE 480 16 208 16
WIRE 608 16 480 16
WIRE 688 16 608 16
WIRE 800 16 688 16
WIRE 848 16 800 16
WIRE 608 48 608 16
WIRE 688 48 688 16
WIRE 848 48 848 16
WIRE 480 64 480 16
WIRE 192 144 192 64
WIRE -128 160 -128 16
WIRE 480 224 480 144
WIRE 480 224 240 224
WIRE 480 256 480 224
WIRE -128 384 -128 240
WIRE 608 384 608 112
WIRE 688 384 688 112
WIRE 848 384 848 128
WIRE 192 400 192 240
WIRE 416 400 192 400
WIRE 480 400 480 336
WIRE 480 400 416 400
WIRE 416 528 416 480
FLAG 608 384 0
FLAG 688 384 0
FLAG 848 384 0
FLAG -128 384 0
FLAG 416 528 0
FLAG -48 16 IN
FLAG 800 16 OUT2
FLAG 608 -304 0
FLAG 688 -304 0
FLAG 848 -304 0
FLAG 416 -160 0
FLAG 800 -672 OUT1
SYMBOL Parts_TCO\\FDV301N 240 144 M0
SYMATTR InstName U1
SYMBOL res 464 48 R0
SYMATTR InstName R2
SYMATTR Value 3.3Meg
SYMBOL res 464 240 R0
SYMATTR InstName R3
SYMATTR Value 820k
SYMBOL cap 592 48 R0
SYMATTR InstName C1
SYMATTR Value 10µ
SYMBOL cap 672 48 R0
SYMATTR InstName C2
SYMATTR Value 100n
SYMBOL res 832 32 R0
SYMATTR InstName R4
SYMATTR Value 1000
SYMBOL voltage -128 144 R0
WINDOW 123 0 0 Left 0
WINDOW 39 0 0 Left 0
SYMATTR InstName V1
SYMATTR Value 5
SYMBOL Parts_TCO\\BSS169 112 64 R270
SYMATTR InstName U3
SYMBOL res 400 384 R0
SYMATTR InstName R1
SYMATTR Value 0.01
SYMBOL res 464 -640 R0
SYMATTR InstName R5
SYMATTR Value 3.3Meg
SYMBOL res 464 -448 R0
SYMATTR InstName R6
SYMATTR Value 1.5Meg
SYMBOL cap 592 -640 R0
SYMATTR InstName C3
SYMATTR Value 10µ
SYMBOL cap 672 -640 R0
SYMATTR InstName C4
SYMATTR Value 100n
SYMBOL res 832 -656 R0
SYMATTR InstName R7
SYMATTR Value 1000
SYMBOL Parts_TCO\\BSS169 112 -624 R270
SYMATTR InstName U2
SYMBOL res 400 -304 R0
SYMATTR InstName R8
SYMATTR Value 0.01
SYMBOL AutoGenerated\\BSS138_FAI 304 -480 M0
SYMATTR InstName U4
TEXT -160 408 Left 2 !.dc v1 0 10 0.1
