Version 4
SHEET 1 2816 948
WIRE 256 -48 240 -48
WIRE 160 48 160 -48
WIRE 176 48 160 48
WIRE 256 48 256 -48
WIRE 256 48 224 48
WIRE 0 96 -240 96
WIRE 96 96 80 96
WIRE 160 96 96 96
WIRE 368 96 240 96
WIRE 416 96 368 96
WIRE 560 96 496 96
WIRE 672 96 640 96
WIRE 896 96 672 96
WIRE -240 160 -240 96
WIRE 96 160 96 96
WIRE 368 160 368 96
WIRE 672 160 672 96
WIRE -240 272 -240 240
WIRE 96 272 96 224
WIRE 96 272 -240 272
WIRE 368 272 368 240
WIRE 368 272 96 272
WIRE 672 272 672 240
WIRE 672 272 368 272
WIRE -240 304 -240 272
WIRE 896 352 896 96
WIRE 256 400 -288 400
WIRE 1488 464 1008 464
WIRE 2064 464 1520 464
WIRE -80 528 -576 528
WIRE -16 528 -80 528
WIRE 48 528 -16 528
WIRE 896 528 896 416
WIRE 896 528 128 528
WIRE 1184 528 896 528
WIRE 1312 528 1184 528
WIRE 1584 528 1376 528
WIRE 1760 528 1664 528
WIRE 1952 528 1760 528
WIRE 2192 528 1952 528
WIRE 2288 528 2192 528
WIRE 1760 560 1760 528
WIRE 1952 560 1952 528
WIRE -576 576 -576 528
WIRE -80 576 -80 528
WIRE -16 576 -16 528
WIRE 1184 576 1184 528
WIRE 2288 576 2288 528
WIRE -576 672 -576 656
WIRE -144 672 -576 672
WIRE -16 672 -16 640
WIRE -16 672 -144 672
WIRE 48 672 -16 672
WIRE 672 672 672 272
WIRE 672 672 128 672
WIRE 1184 672 1184 640
WIRE 1184 672 672 672
WIRE 1760 672 1760 624
WIRE 1760 672 1184 672
WIRE 1952 672 1952 624
WIRE 1952 672 1760 672
WIRE 2288 672 2288 656
WIRE 2288 672 1952 672
WIRE -144 704 -144 672
WIRE -144 784 -144 768
WIRE -80 784 -80 640
WIRE -80 784 -144 784
WIRE -144 816 -144 784
WIRE 1008 848 1008 464
WIRE 1488 848 1488 464
WIRE 1488 848 1008 848
WIRE 1520 848 1520 464
WIRE 2064 848 2064 464
WIRE 2064 848 1520 848
WIRE -288 944 -288 400
WIRE 256 944 256 400
WIRE 256 944 -288 944
FLAG -240 304 0
FLAG -144 816 0
FLAG 2192 528 Vout
SYMBOL voltage 256 -48 R90
WINDOW 3 -328 114 Left 2
WINDOW 123 0 0 Left 0
WINDOW 39 0 0 Left 0
SYMATTR Value PWL(0 0 {Ts} 0 {Ts+0.01u} 5)
SYMATTR InstName V2
SYMBOL res 96 80 R90
WINDOW 0 0 56 VBottom 2
WINDOW 3 32 56 VTop 2
SYMATTR InstName R1
SYMATTR Value 1k
SYMBOL res 384 256 R180
WINDOW 0 36 76 Left 2
WINDOW 3 36 40 Left 2
SYMATTR InstName Rs1
SYMATTR Value 25.1
SYMBOL res 400 112 R270
WINDOW 0 32 56 VTop 2
WINDOW 3 0 56 VBottom 2
SYMATTR InstName Rm
SYMATTR Value 0.94
SYMBOL res 656 144 R0
SYMATTR InstName Rs2
SYMATTR Value 19.8
SYMBOL cap 80 160 R0
SYMATTR InstName Cc
SYMATTR Value 6.04µF
SYMBOL ind 544 112 R270
WINDOW 0 32 56 VTop 2
WINDOW 3 5 56 VBottom 2
SYMATTR InstName Lr
SYMATTR Value 10.04µH
SYMBOL sw 144 96 M90
SYMATTR InstName S1
SYMATTR Value SWITCH
SYMBOL voltage -240 144 R0
WINDOW 123 0 0 Left 0
WINDOW 39 0 0 Left 0
SYMATTR InstName V1
SYMATTR Value {TestVoltage*1.082}
SYMBOL voltage -576 560 R0
WINDOW 123 0 0 Left 0
WINDOW 39 0 0 Left 0
SYMATTR InstName V3
SYMATTR Value {Vin}
SYMBOL ind 144 512 R90
WINDOW 0 5 56 VBottom 2
WINDOW 3 32 56 VTop 2
SYMATTR InstName L1
SYMATTR Value 1.5m
SYMBOL ind 144 656 R90
WINDOW 0 5 56 VBottom 2
WINDOW 3 32 56 VTop 2
SYMATTR InstName L2
SYMATTR Value 1.5m
SYMBOL cap -32 576 R0
SYMATTR InstName C1
SYMATTR Value 1µ
SYMBOL cap -96 576 R0
SYMATTR InstName C2
SYMATTR Value 1µ
SYMBOL cap -160 704 R0
SYMATTR InstName C3
SYMATTR Value 1µ
SYMBOL cap 880 352 R0
SYMATTR InstName C4
SYMATTR Value 18µ
SYMBOL res 2272 560 R0
SYMATTR InstName Rload
SYMATTR Value {Vin/Iin}
SYMBOL AutoGenerated\\SMDJ5.0A 1184 608 R270
SYMATTR InstName U1
SYMBOL cap 1744 560 R0
SYMATTR InstName C5
SYMATTR Value 100µ
SYMBOL ind 1680 512 R90
WINDOW 0 5 56 VBottom 2
WINDOW 3 32 56 VTop 2
SYMATTR InstName L3
SYMATTR Value 10µ
SYMBOL schottky 1312 544 R270
WINDOW 0 32 32 VTop 2
WINDOW 3 0 32 VBottom 2
SYMATTR InstName D1
SYMATTR Value MBRS340
SYMATTR Description Diode
SYMATTR Type diode
TEXT 304 -80 Left 2 !.model SWITCH SW(Ron=1m Roff=1Meg Vt=2.5 Vh=-0.5)
TEXT 304 -48 Left 2 !.tran 0 3m 0 0.01u
TEXT 304 -112 Left 2 !.param Ts=10u
TEXT 304 -144 Left 2 !.param TestVoltage=2e3V
TEXT 960 376 Left 2 ;Coupling capacitor\nDependent on DUT type
TEXT -800 608 Left 2 !.param Vin=5V
TEXT 2312 680 Left 2 !.param Iin=1A
TEXT 2312 720 Left 2 ;LDO input current = LDO load current = Iin
TEXT -272 920 Left 2 ;CDN
TEXT 1072 712 Left 2 !.lib tvs_model.lib
TEXT 1024 824 Left 2 ;Surge protection
TEXT 1536 824 Left 2 ;Surge filter << 4kHz
TEXT 312 -264 Left 2 ;Denver_PELS_20070918_Hesterman_Voltage_Surge_Immunity.pdf
