Version 4
SHEET 1 880 680
WIRE 64 48 -144 48
WIRE 96 48 64 48
WIRE 208 48 160 48
WIRE 400 48 208 48
WIRE 208 80 208 48
WIRE -144 160 -144 48
WIRE 64 160 64 48
WIRE 400 176 400 144
WIRE 352 272 352 128
WIRE 400 272 400 256
WIRE 400 272 352 272
WIRE 400 320 400 272
WIRE 400 448 400 384
WIRE 544 448 400 448
WIRE -144 544 -144 240
WIRE 64 544 64 224
WIRE 64 544 -144 544
WIRE 208 544 208 144
WIRE 208 544 64 544
WIRE 400 544 400 528
WIRE 400 544 208 544
WIRE 544 544 400 544
SYMBOL diode 80 224 R180
WINDOW 0 24 64 Left 2
WINDOW 3 24 0 Left 2
SYMATTR InstName TVS1
SYMBOL diode 96 64 R270
WINDOW 0 32 32 VTop 2
WINDOW 3 0 32 VBottom 2
SYMATTR InstName D2
SYMBOL cap 192 80 R0
SYMATTR InstName C1
SYMATTR Value 10n
SYMBOL nmos 352 48 R0
SYMATTR InstName M1
SYMATTR Value NMOS_depletion (BSS169, BSS126)
SYMBOL res 384 160 R0
SYMATTR InstName R1
SYMBOL res 384 432 R0
SYMATTR InstName R2
SYMBOL ZZZ\\OPTO\\TLP785 640 496 R0
SYMATTR InstName U1
SYMBOL zener 416 384 R180
WINDOW 0 24 64 Left 2
WINDOW 3 24 0 Left 2
SYMATTR InstName D3
SYMBOL voltage -144 144 R0
SYMATTR InstName V1
