Version 4
SHEET 1 1076 680
WIRE -192 -368 -336 -368
WIRE -48 -368 -128 -368
WIRE 224 -368 -48 -368
WIRE -48 -320 -48 -368
WIRE -48 -224 -48 -256
WIRE -48 -224 -192 -224
WIRE 48 -224 -48 -224
WIRE 352 -224 144 -224
WIRE 416 -224 352 -224
WIRE 624 -224 512 -224
WIRE 736 -224 704 -224
WIRE -336 -160 -336 -368
WIRE -192 -160 -192 -224
WIRE 736 -160 736 -224
WIRE 128 -144 128 -176
WIRE 224 -144 224 -368
WIRE 224 -144 128 -144
WIRE 352 -144 224 -144
WIRE 432 -144 432 -176
WIRE 432 -144 352 -144
WIRE -192 0 -336 0
WIRE -48 0 -128 0
WIRE 224 0 -48 0
WIRE -48 48 -48 0
WIRE -48 144 -48 112
WIRE -48 144 -192 144
WIRE 48 144 -48 144
WIRE 352 144 144 144
WIRE 416 144 352 144
WIRE 624 144 512 144
WIRE 736 144 704 144
WIRE -336 208 -336 0
WIRE -192 208 -192 144
WIRE 736 208 736 144
WIRE 128 224 128 192
WIRE 224 224 224 0
WIRE 224 224 128 224
WIRE 352 224 224 224
WIRE 432 224 432 192
WIRE 432 224 352 224
FLAG -192 -80 0
FLAG 736 -80 0
FLAG -336 -80 0
FLAG -192 288 0
FLAG 736 288 0
FLAG -336 288 0
SYMBOL res 336 -240 R0
SYMATTR InstName R1
SYMATTR Value 10k
SYMBOL res 608 -208 R270
WINDOW 0 32 56 VTop 2
WINDOW 3 0 56 VBottom 2
SYMATTR InstName R2
SYMATTR Value 10
SYMBOL voltage -192 -176 R0
WINDOW 123 0 0 Left 0
WINDOW 39 0 0 Left 0
SYMATTR InstName V1
SYMATTR Value PULSE(0 5 10u 1n 1n 1u 2u)
SYMBOL voltage 736 -176 R0
WINDOW 123 0 0 Left 0
WINDOW 39 0 0 Left 0
SYMATTR InstName V3
SYMATTR Value PULSE(0 5 9u 1n 1n 1u 2u)
SYMBOL ZZZ\\MOS\\AO3416 48 -176 R270
SYMATTR InstName U2
SYMBOL ZZZ\\MOS\\AO3416 512 -176 M270
SYMATTR InstName U3
SYMBOL schottky -192 -352 R270
WINDOW 0 32 32 VTop 2
WINDOW 3 0 32 VBottom 2
SYMATTR InstName D1
SYMATTR Value BAT54
SYMATTR Description Diode
SYMATTR Type diode
SYMBOL cap -64 -320 R0
SYMATTR InstName C1
SYMATTR Value 100n
SYMBOL voltage -336 -176 R0
WINDOW 123 0 0 Left 0
WINDOW 39 0 0 Left 0
SYMATTR InstName V4
SYMATTR Value 5
SYMBOL res 336 128 R0
SYMATTR InstName R3
SYMATTR Value 10k
SYMBOL res 608 160 R270
WINDOW 0 32 56 VTop 2
WINDOW 3 0 56 VBottom 2
SYMATTR InstName R4
SYMATTR Value 10
SYMBOL voltage -192 192 R0
WINDOW 123 0 0 Left 0
WINDOW 39 0 0 Left 0
SYMATTR InstName V2
SYMATTR Value 0
SYMBOL voltage 736 192 R0
WINDOW 123 0 0 Left 0
WINDOW 39 0 0 Left 0
SYMATTR InstName V5
SYMATTR Value 5
SYMBOL ZZZ\\MOS\\AO3416 48 192 R270
SYMATTR InstName U1
SYMBOL ZZZ\\MOS\\AO3416 512 192 M270
SYMATTR InstName U4
SYMBOL schottky -192 16 R270
WINDOW 0 32 32 VTop 2
WINDOW 3 0 32 VBottom 2
SYMATTR InstName D2
SYMATTR Value BAT54
SYMATTR Description Diode
SYMATTR Type diode
SYMBOL cap -64 48 R0
SYMATTR InstName C2
SYMATTR Value 100n
SYMBOL voltage -336 192 R0
WINDOW 123 0 0 Left 0
WINDOW 39 0 0 Left 0
SYMATTR InstName V6
SYMATTR Value 0
TEXT -176 360 Left 2 !.tran 100u
TEXT -1072 -168 Left 2 ;Bootstrap drive only works when V1 is an oscillating signal
