Version 4
SHEET 1 880 680
WIRE -48 80 -288 80
WIRE 256 80 48 80
WIRE 320 80 256 80
WIRE 496 80 416 80
WIRE -288 144 -288 80
WIRE 496 144 496 80
WIRE 32 160 32 128
WIRE 256 160 32 160
WIRE 336 160 336 128
WIRE 336 160 256 160
WIRE 336 192 336 160
WIRE 496 256 496 224
WIRE 288 272 160 272
WIRE 160 304 160 272
WIRE 336 352 336 288
WIRE 160 432 160 384
FLAG 496 256 0
FLAG 160 432 0
FLAG -288 224 0
FLAG 336 352 0
SYMBOL pmos -48 128 R270
SYMATTR InstName M1
SYMATTR Value AO3423
SYMBOL pmos 416 128 M270
SYMATTR InstName M2
SYMATTR Value AO3423
SYMBOL res 240 64 R0
SYMATTR InstName R1
SYMATTR Value 10k
SYMBOL res 480 128 R0
SYMATTR InstName R2
SYMATTR Value 10
SYMBOL voltage -288 128 R0
WINDOW 123 0 0 Left 0
WINDOW 39 0 0 Left 0
SYMATTR InstName V1
SYMATTR Value PULSE(0 5 10u 1n 1n 1u 2u)
SYMBOL voltage 160 288 R0
WINDOW 123 0 0 Left 0
WINDOW 39 24 124 Left 2
SYMATTR InstName V2
SYMATTR Value 5
SYMATTR SpiceLine Rser=10
SYMBOL Parts_TCO\\FDV301N 288 192 R0
SYMATTR InstName U1
TEXT -178 360 Left 2 !.tran 100u
