Version 4
SHEET 1 1288 680
WIRE 48 80 -32 80
WIRE 192 80 80 80
WIRE 48 96 48 80
WIRE 80 96 80 80
WIRE -32 112 -32 80
WIRE -32 112 -544 112
WIRE 192 112 192 80
WIRE 432 112 192 112
WIRE 48 192 48 160
WIRE 64 192 48 192
WIRE 80 192 80 160
WIRE 80 192 64 192
WIRE -544 240 -544 192
WIRE 64 240 64 192
WIRE 432 240 432 192
FLAG -544 240 0
FLAG 432 240 0
FLAG 64 240 0
DATAFLAG 320 112 ""
SYMBOL AutoGenerated\\CNSW_1812_744235510_3000ohm 1216 96 M90
SYMATTR InstName U1
SYMBOL voltage -544 96 R0
WINDOW 123 24 124 Left 2
WINDOW 39 24 152 Left 2
SYMATTR InstName Vin
SYMATTR Value SINE(10 1 10meg)
SYMATTR Value2 AC 1
SYMATTR SpiceLine Rser=50
SYMBOL res 416 96 R0
SYMATTR InstName Rout
SYMATTR Value 50
SYMBOL AutoGenerated\\CNSW_1812_744235220_8000ohm 64 128 M90
SYMATTR InstName U2
TEXT -208 24 Left 2 !.inc WE-CNSW.lib\n.net I(Rout) Vin
TEXT -200 -8 Left 2 !.ac dec 1000 10k 1g
