Version 4
SHEET 1 1848 740
WIRE -176 -48 -464 -48
WIRE -32 -48 -176 -48
WIRE 112 -48 -32 -48
WIRE 176 -48 112 -48
WIRE 192 -48 176 -48
WIRE 352 -48 272 -48
WIRE 1024 -48 352 -48
WIRE 1168 -48 1024 -48
WIRE 1248 -48 1168 -48
WIRE 352 -32 352 -48
WIRE -32 0 -32 -48
WIRE 1024 16 1024 -48
WIRE 1248 16 1248 -48
WIRE 112 32 112 16
WIRE 256 32 256 0
WIRE 256 32 112 32
WIRE 352 32 256 32
WIRE -464 160 -464 -48
WIRE -176 160 -176 -48
WIRE -32 160 -32 80
WIRE 208 160 -32 160
WIRE -32 256 -32 240
WIRE 160 256 -32 256
WIRE 592 256 160 256
WIRE 1024 256 1024 96
WIRE 1024 256 672 256
WIRE 608 304 592 304
WIRE 672 304 656 304
WIRE -32 320 -32 256
WIRE 352 320 352 112
WIRE 592 368 592 304
WIRE 672 368 672 304
WIRE 496 400 400 400
WIRE 208 432 208 160
WIRE -32 496 -32 384
WIRE 496 512 496 400
WIRE 496 512 256 512
WIRE 1024 512 1024 256
WIRE 1024 512 496 512
WIRE -176 528 -176 240
WIRE 208 528 -176 528
WIRE 352 528 352 416
WIRE 352 528 208 528
WIRE 208 544 208 528
WIRE 160 624 -16 624
WIRE -16 640 -16 624
FLAG -464 240 0
FLAG -32 496 0
FLAG -16 720 0
FLAG 1248 96 0
FLAG 1168 -48 Vout
FLAG 160 256 Vcap
FLAG 208 640 0
SYMBOL voltage -464 144 R0
WINDOW 123 0 0 Left 0
WINDOW 39 0 0 Left 0
SYMATTR InstName V1
SYMATTR Value PWL(0 0 100n 5v)
SYMBOL Parts_TCO\\FDV301N 256 432 M0
SYMATTR InstName U1
SYMBOL res -48 -16 R0
SYMATTR InstName R1
SYMATTR Value 10k
SYMBOL res -48 144 R0
SYMATTR InstName R3
SYMATTR Value 100k
SYMBOL cap -48 320 R0
SYMATTR InstName C1
SYMATTR Value 3µ
SYMBOL res 1008 0 R0
SYMATTR InstName R4
SYMATTR Value 10k
SYMBOL sw 576 256 R270
SYMATTR InstName S1
SYMATTR Value MYSW
SYMBOL voltage 688 368 R90
WINDOW 0 -32 56 VBottom 2
WINDOW 3 36 -124 VTop 2
WINDOW 123 0 0 Left 0
WINDOW 39 0 0 Left 0
SYMATTR InstName V2
SYMATTR Value PULSE(0 5 200m 1n 1n 200m 1)
SYMBOL voltage -16 624 R0
SYMATTR InstName V3
SYMATTR Value 3
SYMBOL res 1232 0 R0
SYMATTR InstName Rload
SYMATTR Value 10
SYMBOL Parts_TCO\\FDV301N 160 544 R0
SYMATTR InstName U3
SYMBOL res -192 144 R0
SYMATTR InstName R5
SYMATTR Value 100k
SYMBOL res 336 16 R0
SYMATTR InstName R2
SYMATTR Value 1k
SYMBOL cap 336 -32 R0
SYMATTR InstName C2
SYMATTR Value 100n
SYMBOL res 96 -64 R0
SYMATTR InstName R6
SYMATTR Value 10k
SYMBOL Parts_TCO\\FDV301N 400 320 M0
SYMATTR InstName U4
SYMBOL ZZZ\\MOS\\AO3415 176 0 R270
SYMATTR InstName U5
TEXT 312 576 Left 2 !.model MYSW SW(Ron=0.1 Roff=10Meg Vt=2 Vh=0.1)
TEXT 320 608 Left 2 !.tran 5s
TEXT -416 -144 Left 2 ;https://electronics.stackexchange.com/questions/316777/latching-circuits-problem-above-input-voltage
