Version 4
SHEET 1 1548 916
WIRE -80 48 -464 48
WIRE 64 48 -80 48
WIRE 336 48 64 48
WIRE 496 48 432 48
WIRE 896 48 496 48
WIRE 1040 48 896 48
WIRE 1120 48 1040 48
WIRE 496 64 496 48
WIRE 896 64 896 48
WIRE 1120 64 1120 48
WIRE 64 144 64 128
WIRE 176 144 64 144
WIRE 352 144 352 96
WIRE 496 144 496 128
WIRE 496 144 352 144
WIRE -464 160 -464 48
WIRE -80 160 -80 48
WIRE 64 160 64 144
WIRE 352 160 352 144
WIRE 64 256 64 240
WIRE 304 256 64 256
WIRE 512 256 304 256
WIRE 896 256 896 144
WIRE 896 256 592 256
WIRE 528 304 512 304
WIRE 592 304 576 304
WIRE 64 320 64 256
WIRE 176 368 176 144
WIRE 352 368 352 240
WIRE 352 368 176 368
WIRE 512 368 512 304
WIRE 592 368 592 304
WIRE 352 432 352 368
WIRE 64 496 64 384
WIRE 896 512 896 256
WIRE 896 512 400 512
WIRE -80 528 -80 240
WIRE 352 528 -80 528
WIRE 352 544 352 528
WIRE 304 624 -16 624
WIRE -16 640 -16 624
FLAG -464 240 0
FLAG 64 496 0
FLAG -16 720 0
FLAG 1120 144 0
FLAG 1040 48 Vout
FLAG 304 256 Vcap
FLAG 352 640 0
SYMBOL voltage -464 144 R0
WINDOW 123 0 0 Left 0
WINDOW 39 0 0 Left 0
SYMATTR InstName V1
SYMATTR Value PWL(0 0 100n 5v)
SYMBOL Parts_TCO\\FDV301N 400 432 M0
SYMATTR InstName U1
SYMBOL res 48 32 R0
SYMATTR InstName R1
SYMATTR Value 10k
SYMBOL res 336 144 R0
SYMATTR InstName R2
SYMATTR Value 10k
SYMBOL res 48 144 R0
SYMATTR InstName R3
SYMATTR Value 100k
SYMBOL cap 48 320 R0
SYMATTR InstName C1
SYMATTR Value 1µ
SYMBOL res 880 48 R0
SYMATTR InstName R4
SYMATTR Value 10k
SYMBOL sw 496 256 R270
SYMATTR InstName S1
SYMATTR Value MYSW
SYMBOL voltage 608 368 R90
WINDOW 0 -32 56 VBottom 2
WINDOW 3 36 -124 VTop 2
WINDOW 123 0 0 Left 0
WINDOW 39 0 0 Left 0
SYMATTR InstName V2
SYMATTR Value PULSE(0 5 200m 1n 1n 200m 1)
SYMBOL voltage -16 624 R0
SYMATTR InstName V3
SYMATTR Value 3
SYMBOL Parts_TCO\\AO3401A 432 96 M270
SYMATTR InstName U2
SYMBOL res 1104 48 R0
SYMATTR InstName Rload
SYMATTR Value 10
SYMBOL Parts_TCO\\FDV301N 304 544 R0
SYMATTR InstName U3
SYMBOL res -96 144 R0
SYMATTR InstName R5
SYMATTR Value 100k
SYMBOL cap 480 64 R0
SYMATTR InstName C2
SYMATTR Value 10n
TEXT 224 712 Left 2 !.model MYSW SW(Ron=0.1 Roff=10Meg Vt=2 Vh=0.1)
TEXT 464 608 Left 2 !.tran 5s uic
TEXT 72 872 Left 2 ;Short press for ON, another short press to turn OFF.\nProblem with this circuit is to get softstart working properly because it works edge-triggered (at the start of the button press).
