Version 4
SHEET 1 1512 740
WIRE -352 -368 -1152 -368
WIRE -144 -368 -352 -368
WIRE 240 -368 -144 -368
WIRE 480 -368 336 -368
WIRE 576 -368 480 -368
WIRE 672 -368 576 -368
WIRE 1008 -368 672 -368
WIRE 1136 -368 1008 -368
WIRE 1184 -368 1136 -368
WIRE 1008 -336 1008 -368
WIRE 1184 -336 1184 -368
WIRE 256 -272 256 -320
WIRE 480 -272 480 -304
WIRE 480 -272 256 -272
WIRE 672 -272 672 -288
WIRE 816 -272 672 -272
WIRE -1152 -256 -1152 -368
WIRE 1008 -256 1008 -272
WIRE 256 -240 256 -272
WIRE 576 -240 576 -368
WIRE 672 -240 672 -272
WIRE 480 -224 480 -272
WIRE -464 -112 -752 -112
WIRE -352 -112 -352 -288
WIRE -352 -112 -464 -112
WIRE -272 -112 -352 -112
WIRE -144 -112 -144 -288
WIRE -144 -112 -208 -112
WIRE 256 -112 256 -160
WIRE 256 -112 -144 -112
WIRE 480 -112 480 -160
WIRE 480 -112 256 -112
WIRE -144 -80 -144 -112
WIRE -752 -64 -752 -112
WIRE -640 -64 -704 -64
WIRE -704 -48 -704 -64
WIRE -352 -48 -352 -112
WIRE 576 -32 576 -176
WIRE 576 -32 528 -32
WIRE 672 -32 672 -160
WIRE 672 -32 576 -32
WIRE -704 16 -704 0
WIRE -640 16 -704 16
WIRE -144 32 -144 -16
WIRE -752 96 -752 16
WIRE -352 112 -352 16
WIRE 816 112 816 -272
WIRE 816 112 -352 112
WIRE 976 192 864 192
FLAG -1152 -176 0
FLAG 1184 -256 0
FLAG 1136 -368 Vout
FLAG -752 96 0
FLAG 480 -16 0
FLAG -144 32 0
FLAG -464 -112 VSW
FLAG 1008 -256 0
FLAG 816 208 0
FLAG 976 272 0
SYMBOL res -368 -384 R0
SYMATTR InstName R5
SYMATTR Value 100k
SYMBOL res -160 -384 R0
SYMATTR InstName R6
SYMATTR Value 100k
SYMBOL cap -208 -128 R90
WINDOW 0 0 32 VBottom 2
WINDOW 3 32 32 VTop 2
SYMATTR InstName C3
SYMATTR Value 1µ
SYMBOL schottky -336 16 R180
WINDOW 0 24 64 Left 2
WINDOW 3 24 0 Left 2
SYMATTR InstName D2
SYMATTR Value BAT54
SYMATTR Description Diode
SYMATTR Type diode
SYMBOL Parts_TCO\\AO3401A 336 -320 M270
SYMATTR InstName U4
SYMBOL cap 464 -368 R0
SYMATTR InstName C4
SYMATTR Value 10n
SYMBOL res 240 -256 R0
SYMATTR InstName R7
SYMATTR Value 100k
SYMBOL schottky 496 -160 R180
WINDOW 0 24 64 Left 2
WINDOW 3 24 0 Left 2
SYMATTR InstName D4
SYMATTR Value BAT54
SYMATTR Description Diode
SYMATTR Type diode
SYMBOL res 656 -384 R0
SYMATTR InstName R8
SYMATTR Value 100k
SYMBOL res 656 -256 R0
SYMATTR InstName R9
SYMATTR Value 2.2Meg
SYMBOL voltage -1152 -272 R0
WINDOW 123 0 0 Left 0
WINDOW 39 0 0 Left 0
SYMATTR InstName V4
SYMATTR Value PWL(0 0 100n 5v)
SYMBOL sw -752 32 R180
SYMATTR InstName S2
SYMATTR Value MYSW
SYMBOL voltage -640 -80 R0
WINDOW 0 -32 56 VBottom 2
WINDOW 3 299 205 Invisible 2
WINDOW 123 0 0 Left 0
WINDOW 39 0 0 Left 0
SYMATTR InstName V5
SYMATTR Value PWL(0 0 4 2 4.0001 5 8 5 8.0001 0 9 0 9.0001 5 9.3 5 9.3001 0)
SYMBOL res 1168 -352 R0
SYMATTR InstName Rload1
SYMATTR Value 1k
SYMBOL Parts_TCO\\FDV301N 528 -112 M0
SYMATTR InstName U1
SYMBOL cap 560 -240 R0
SYMATTR InstName C1
SYMATTR Value 1µ
SYMBOL cap -128 -16 R180
WINDOW 0 24 56 Left 2
WINDOW 3 24 8 Left 2
SYMATTR InstName C2
SYMATTR Value 100n
SYMBOL cap 992 -336 R0
SYMATTR InstName C5
SYMATTR Value 100µ
SYMBOL Parts_TCO\\FDV301N 864 112 M0
SYMATTR InstName U2
SYMBOL voltage 976 176 R0
WINDOW 123 0 0 Left 0
WINDOW 39 0 0 Left 0
SYMATTR InstName V1
SYMATTR Value PWL(0 0 9 0 9.001 3)
TEXT -1186 120 Left 2 !.tran 15s uic
TEXT -704 168 Left 2 !.model MYSW SW(Ron=0.1 Roff=10Meg Vt=2 Vh=0.1)
TEXT -696 248 Left 2 ;Automatic ON, long press to turn off, short press to turn on
