Version 4.1
SHEET 1 1288 680
WIRE 16 112 -544 112
WIRE 432 112 112 112
WIRE -544 240 -544 192
WIRE 432 240 432 192
WIRE 16 432 16 304
WIRE 64 432 16 432
WIRE 112 432 112 304
WIRE 112 432 64 432
WIRE 64 480 64 432
FLAG -544 240 0
FLAG 432 240 0
FLAG 64 480 0
DATAFLAG 320 112 ""
SYMBOL voltage -544 96 R0
WINDOW 123 24 124 Left 2
WINDOW 39 24 152 Left 2
SYMATTR Value2 AC 1
SYMATTR SpiceLine Rser=50
SYMATTR InstName Vin
SYMATTR Value SINE(10 1 10meg)
SYMBOL res 416 96 R0
SYMATTR InstName Rout
SYMATTR Value 50
SYMBOL Contrib\\Wurth\\EMC-Components\\CommonModeChokes\\WE-CNSW 64 208 R90
SYMATTR InstName L1
SYMATTR SpiceModel 1812_744235510_3000ohm
TEXT -208 24 Left 2 !.net I(Rout) Vin
TEXT -200 -8 Left 2 !.ac dec 1000 10k 1g
