Version 4
SHEET 1 1016 680
WIRE 16 -144 -448 -144
WIRE 464 -144 16 -144
WIRE 640 -144 464 -144
WIRE 768 -144 640 -144
WIRE 896 -144 768 -144
WIRE 768 -112 768 -144
WIRE 896 -112 896 -144
WIRE 640 -64 640 -144
WIRE 640 16 368 16
WIRE 704 16 640 16
WIRE 832 16 704 16
WIRE 896 64 768 64
WIRE 464 80 464 -144
WIRE 768 96 768 64
WIRE 640 160 640 16
WIRE -448 176 -448 -144
WIRE 896 176 896 64
WIRE 768 192 768 176
WIRE 768 192 672 192
WIRE 16 208 16 -144
WIRE 768 224 768 192
WIRE 368 272 368 16
WIRE 464 304 464 160
WIRE 464 304 400 304
WIRE 512 304 464 304
WIRE 640 304 640 224
WIRE 640 304 592 304
WIRE 768 304 640 304
WIRE 896 304 896 240
WIRE 896 304 768 304
WIRE -448 320 -448 256
WIRE 16 320 16 272
WIRE 16 544 16 384
WIRE 368 576 368 336
WIRE 640 576 640 384
WIRE 640 576 368 576
FLAG -448 320 0
FLAG 368 576 0
FLAG 16 544 0
SYMBOL current -448 256 R180
WINDOW 0 24 80 Left 2
WINDOW 3 24 0 Left 2
WINDOW 123 0 0 Left 0
WINDOW 39 0 0 Left 0
SYMATTR InstName I1
SYMATTR Value 0.65
SYMBOL LED 0 208 R0
SYMATTR InstName D1
SYMATTR Value XB-DRDORED
SYMATTR Description Diode
SYMATTR Type diode
SYMBOL LED 0 320 R0
SYMATTR InstName D2
SYMATTR Value XB-DRDORED
SYMATTR Description Diode
SYMATTR Type diode
SYMBOL npn 704 -32 R0
SYMATTR InstName Q3
SYMATTR Value PN100
SYMBOL res 752 80 R0
SYMATTR InstName R7
SYMATTR Value 27k
SYMBOL res 752 208 R0
SYMATTR InstName R8
SYMATTR Value 12k
SYMBOL cap 880 176 R0
SYMATTR InstName C1
SYMATTR Value 0.1
SYMBOL Parts_TCO\\TLV431 640 192 R0
SYMATTR InstName U2
SYMBOL res 624 -80 R0
SYMATTR InstName R9
SYMATTR Value 1k
SYMBOL res 624 288 R0
SYMATTR InstName R10
SYMATTR Value 1
SYMBOL Parts_TCO\\TLV431 368 304 R0
SYMATTR InstName U3
SYMBOL npn 832 -32 R0
SYMATTR InstName Q1
SYMATTR Value PN100
SYMBOL res 752 -128 R0
SYMATTR InstName R1
SYMATTR Value 1
SYMBOL res 880 -128 R0
SYMATTR InstName R2
SYMATTR Value 1
SYMBOL res 608 288 R90
WINDOW 0 0 56 VBottom 2
WINDOW 3 32 56 VTop 2
SYMATTR InstName R3
SYMATTR Value 10k
SYMBOL res 480 176 R180
WINDOW 0 36 76 Left 2
WINDOW 3 36 40 Left 2
SYMATTR InstName R4
SYMATTR Value 33k
TEXT -524 344 Left 2 !;op
TEXT -520 376 Left 2 !.tran 0 10 0.01 uic
