Version 4
SHEET 1 2624 940
WIRE 176 48 -112 48
WIRE 224 48 176 48
WIRE 336 48 288 48
WIRE 1472 48 336 48
WIRE 1600 48 1472 48
WIRE -112 128 -112 48
WIRE 176 128 176 48
WIRE 224 128 176 128
WIRE 384 128 288 128
WIRE 1472 144 1472 48
WIRE 1600 144 1600 112
WIRE 1600 288 1600 208
WIRE 1808 288 1600 288
WIRE 2192 288 1872 288
WIRE 2384 288 2192 288
WIRE 2192 336 2192 288
WIRE 2384 336 2384 288
WIRE 1600 352 1600 288
WIRE 1472 400 1472 224
WIRE 1536 400 1472 400
WIRE 1472 416 1472 400
WIRE 1600 448 1504 448
WIRE 1744 448 1600 448
WIRE 2384 448 2384 416
WIRE 224 464 176 464
WIRE 336 464 336 48
WIRE 336 464 288 464
WIRE -112 544 -112 208
WIRE 176 544 176 464
WIRE 176 544 -112 544
WIRE 224 544 176 544
WIRE 384 544 384 128
WIRE 384 544 288 544
WIRE 1472 544 1472 480
WIRE 1472 544 384 544
WIRE 1600 544 1600 528
WIRE 1600 544 1472 544
WIRE 1744 544 1744 448
WIRE 2192 544 2192 400
WIRE 2192 544 1744 544
WIRE 2384 544 2384 512
WIRE 2384 544 2192 544
WIRE 1744 608 1744 544
FLAG 1744 608 0
FLAG 2384 288 Vout
SYMBOL voltage -112 112 R0
WINDOW 123 0 0 Left 0
WINDOW 39 24 124 Left 2
SYMATTR SpiceLine Rser=30.8
SYMATTR InstName V1
SYMATTR Value SINE(0 28.3 70)
SYMBOL LED 1584 48 R0
SYMATTR InstName D2
SYMATTR Value LXML-PWW1-VFBin_D
SYMATTR Description Diode
SYMATTR Type diode
SYMBOL LED 1584 144 R0
SYMATTR InstName D1
SYMATTR Value LXML-PWW1-VFBin_D
SYMATTR Description Diode
SYMATTR Type diode
SYMBOL schottky 224 64 R270
WINDOW 0 32 32 VTop 2
WINDOW 3 0 32 VBottom 2
SYMATTR InstName D3
SYMATTR Value MBRS1100
SYMATTR Description Diode
SYMATTR Type diode
SYMBOL schottky 288 112 R90
WINDOW 0 0 32 VBottom 2
WINDOW 3 32 32 VTop 2
SYMATTR InstName D4
SYMATTR Value MBRS1100
SYMATTR Description Diode
SYMATTR Type diode
SYMBOL schottky 288 528 R90
WINDOW 0 0 32 VBottom 2
WINDOW 3 32 32 VTop 2
SYMATTR InstName D5
SYMATTR Value MBRS1100
SYMATTR Description Diode
SYMATTR Type diode
SYMBOL schottky 224 448 M90
WINDOW 0 0 32 VBottom 2
WINDOW 3 32 32 VTop 2
SYMATTR InstName D6
SYMATTR Value MBRS1100
SYMATTR Description Diode
SYMATTR Type diode
SYMBOL Parts_TCO\\TLV431 1472 448 R0
SYMATTR InstName U1
SYMBOL res 1616 432 M0
SYMATTR InstName R1
SYMATTR Value 2
SYMBOL npn 1536 352 R0
SYMATTR InstName Q1
SYMATTR Value 2SCR293P
SYMBOL res 1456 128 R0
SYMATTR InstName R2
SYMATTR Value 10k
SYMBOL load2 2384 336 R0
WINDOW 123 0 0 Left 0
WINDOW 39 0 0 Left 0
SYMATTR InstName I1
SYMATTR Value 0.2
SYMBOL schottky 2400 448 M0
SYMATTR InstName D7
SYMATTR Value MBRS1100
SYMATTR Description Diode
SYMATTR Type diode
SYMBOL schottky 1808 272 M90
WINDOW 0 0 32 VBottom 2
WINDOW 3 32 32 VTop 2
SYMATTR InstName D8
SYMATTR Value MBRS1100
SYMATTR Description Diode
SYMATTR Type diode
SYMBOL cap 2176 336 R0
SYMATTR InstName C1
SYMATTR Value 200µ
TEXT -248 384 Left 2 !.tran 0.5s
TEXT 992 696 Left 2 ;TLV431 should work as current sink.  Taking care that LEDs get enough current.
TEXT 1144 816 Left 2 ;The voltage over that sink is then used to feed the buck regulator
TEXT 1072 896 Left 2 ;When speed is high enough, voltage over the current sink will be high,\nallowing to charge more energy into the capacitor, and bridge longer stops.
