Version 4
SHEET 1 2624 680
WIRE 176 48 -112 48
WIRE 224 48 176 48
WIRE 336 48 288 48
WIRE 640 48 336 48
WIRE 976 48 640 48
WIRE -112 128 -112 48
WIRE 976 128 976 48
WIRE 176 144 176 48
WIRE 224 144 176 144
WIRE 384 144 288 144
WIRE 640 192 640 48
WIRE 976 224 976 192
WIRE 976 352 976 288
WIRE 976 352 752 352
WIRE 1200 352 976 352
WIRE 1376 352 1200 352
WIRE 1456 352 1376 352
WIRE 1616 352 1520 352
WIRE 1808 352 1616 352
WIRE 1328 368 1296 368
WIRE 752 384 752 352
WIRE 1808 384 1808 352
WIRE 1616 400 1616 352
WIRE 1808 400 1808 384
WIRE 1296 432 1296 368
WIRE 1296 432 1200 432
WIRE 224 448 176 448
WIRE 336 448 336 48
WIRE 336 448 288 448
WIRE 640 464 640 272
WIRE 640 464 544 464
WIRE 704 464 640 464
WIRE 976 464 976 432
WIRE 1168 464 976 464
WIRE -112 544 -112 208
WIRE 176 544 176 448
WIRE 176 544 -112 544
WIRE 224 544 176 544
WIRE 384 544 384 144
WIRE 384 544 288 544
WIRE 544 544 544 464
WIRE 544 544 384 544
WIRE 640 544 544 544
WIRE 752 544 752 480
WIRE 752 544 640 544
WIRE 976 544 752 544
WIRE 1200 544 1200 496
WIRE 1200 544 976 544
WIRE 1376 544 1376 528
WIRE 1376 544 1200 544
WIRE 1616 544 1616 464
WIRE 1616 544 1376 544
WIRE 1808 544 1808 464
WIRE 1808 544 1616 544
WIRE 384 608 384 544
FLAG 384 608 0
FLAG 1808 352 Vout
SYMBOL voltage -112 112 R0
WINDOW 123 0 0 Left 0
WINDOW 39 24 124 Left 2
SYMATTR SpiceLine Rser=30.8
SYMATTR InstName V1
SYMATTR Value SINE(0 28.3 70)
SYMBOL LED 960 128 R0
SYMATTR InstName D2
SYMATTR Value LXML-PWW1-VFBin_D
SYMATTR Description Diode
SYMATTR Type diode
SYMBOL LED 960 224 R0
SYMATTR InstName D1
SYMATTR Value LXML-PWW1-VFBin_D
SYMATTR Description Diode
SYMATTR Type diode
SYMBOL schottky 224 64 R270
WINDOW 0 32 32 VTop 2
WINDOW 3 0 32 VBottom 2
SYMATTR InstName D3
SYMATTR Value MBRS1100
SYMATTR Description Diode
SYMATTR Type diode
SYMBOL schottky 288 128 R90
WINDOW 0 0 32 VBottom 2
WINDOW 3 32 32 VTop 2
SYMATTR InstName D4
SYMATTR Value MBRS1100
SYMATTR Description Diode
SYMATTR Type diode
SYMBOL schottky 288 528 R90
WINDOW 0 0 32 VBottom 2
WINDOW 3 32 32 VTop 2
SYMATTR InstName D5
SYMATTR Value MBRS1100
SYMATTR Description Diode
SYMATTR Type diode
SYMBOL schottky 224 432 M90
WINDOW 0 0 32 VBottom 2
WINDOW 3 32 32 VTop 2
SYMATTR InstName D6
SYMATTR Value MBRS1100
SYMATTR Description Diode
SYMATTR Type diode
SYMBOL Parts_TCO\\TLV431 1200 464 M0
SYMATTR InstName U1
SYMBOL res 960 336 R0
SYMATTR InstName R1
SYMATTR Value 5.1k
SYMBOL res 960 448 R0
SYMATTR InstName R2
SYMATTR Value 1.2k
SYMBOL res 1216 448 R180
WINDOW 0 36 76 Left 2
WINDOW 3 36 40 Left 2
SYMATTR InstName R4
SYMATTR Value 10k
SYMBOL res 1360 432 R0
SYMATTR InstName R3
SYMATTR Value 1
SYMBOL ZZZ\\MOS\\AO3415 1328 448 M180
SYMATTR InstName U2
SYMBOL cap 1600 400 R0
SYMATTR InstName C1
SYMATTR Value 200µ
SYMBOL nmos 704 384 R0
SYMATTR InstName M1
SYMATTR Value BSC030N03LS
SYMBOL res 624 176 R0
SYMATTR InstName R5
SYMATTR Value 10k
SYMBOL res 624 448 R0
SYMATTR InstName R6
SYMATTR Value 100k
SYMBOL schottky 1456 336 M90
WINDOW 0 0 32 VBottom 2
WINDOW 3 32 32 VTop 2
SYMATTR InstName D7
SYMATTR Value MBRS1100
SYMATTR Description Diode
SYMATTR Type diode
SYMBOL res 1792 368 R0
SYMATTR InstName R7
SYMATTR Value 1k
TEXT -248 384 Left 2 !.tran 1s
TEXT 536 584 Left 2 ;Enable/disable load by opening/short-circuiting NMOS gate
