Version 4
SHEET 1 3088 680
WIRE 432 48 208 48
WIRE 496 48 432 48
WIRE 544 48 496 48
WIRE 656 48 608 48
WIRE 2176 48 656 48
WIRE 2176 112 2176 48
WIRE 208 128 208 48
WIRE 432 128 432 48
WIRE 496 128 496 48
WIRE 544 128 496 128
WIRE 704 128 608 128
WIRE 2176 208 2176 176
WIRE 2176 352 2176 272
WIRE 2400 352 2176 352
WIRE 2576 352 2400 352
WIRE 2656 352 2576 352
WIRE 2816 352 2720 352
WIRE 3008 352 2816 352
WIRE 2528 368 2496 368
WIRE 3008 384 3008 352
WIRE 2816 400 2816 352
WIRE 3008 400 3008 384
WIRE 2496 432 2496 368
WIRE 2496 432 2400 432
WIRE 2496 448 2496 432
WIRE 544 464 496 464
WIRE 656 464 656 48
WIRE 656 464 608 464
WIRE 2176 464 2176 432
WIRE 2176 464 2080 464
WIRE 2368 464 2176 464
WIRE 208 544 208 208
WIRE 432 544 432 208
WIRE 432 544 208 544
WIRE 496 544 496 464
WIRE 496 544 432 544
WIRE 544 544 496 544
WIRE 704 544 704 128
WIRE 704 544 608 544
WIRE 2176 544 704 544
WIRE 2400 544 2400 496
WIRE 2400 544 2176 544
WIRE 2576 544 2576 528
WIRE 2576 544 2400 544
WIRE 2816 544 2816 464
WIRE 2816 544 2576 544
WIRE 3008 544 3008 464
WIRE 3008 544 2816 544
WIRE 704 608 704 544
FLAG 2176 544 0
FLAG 3008 352 Vout
FLAG 704 608 0
SYMBOL Parts_TCO\\TLV431 2400 464 M0
SYMATTR InstName U1
SYMBOL res 2160 336 R0
SYMATTR InstName R1
SYMATTR Value 5.6k
SYMBOL res 2192 560 R180
WINDOW 0 36 76 Left 2
WINDOW 3 36 40 Left 2
SYMATTR InstName R2
SYMATTR Value 1.2k
SYMBOL res 2416 448 R180
WINDOW 0 36 76 Left 2
WINDOW 3 36 40 Left 2
SYMATTR InstName R4
SYMATTR Value 10k
SYMBOL res 2560 432 R0
SYMATTR InstName R3
SYMATTR Value 1
SYMBOL ZZZ\\MOS\\AO3415 2528 448 M180
SYMATTR InstName U2
SYMBOL res 2992 368 R0
SYMATTR InstName R5
SYMATTR Value 25
SYMBOL schottky 544 64 R270
WINDOW 0 32 32 VTop 2
WINDOW 3 0 32 VBottom 2
SYMATTR InstName D3
SYMATTR Value MBRS1100
SYMATTR Description Diode
SYMATTR Type diode
SYMBOL schottky 608 112 R90
WINDOW 0 0 32 VBottom 2
WINDOW 3 32 32 VTop 2
SYMATTR InstName D4
SYMATTR Value MBRS1100
SYMATTR Description Diode
SYMATTR Type diode
SYMBOL schottky 608 528 R90
WINDOW 0 0 32 VBottom 2
WINDOW 3 32 32 VTop 2
SYMATTR InstName D5
SYMATTR Value MBRS1100
SYMATTR Description Diode
SYMATTR Type diode
SYMBOL schottky 544 448 M90
WINDOW 0 0 32 VBottom 2
WINDOW 3 32 32 VTop 2
SYMATTR InstName D6
SYMATTR Value MBRS1100
SYMATTR Description Diode
SYMATTR Type diode
SYMBOL LED 2160 112 R0
SYMATTR InstName D8
SYMATTR Value LXML-PWW1-VFBin_D
SYMATTR Description Diode
SYMATTR Type diode
SYMBOL LED 2160 208 R0
SYMATTR InstName D9
SYMATTR Value LXML-PWW1-VFBin_D
SYMATTR Description Diode
SYMATTR Type diode
SYMBOL cap 2800 400 R0
SYMATTR InstName C2
SYMATTR Value 200µ
SYMBOL schottky 2656 336 M90
WINDOW 0 0 32 VBottom 2
WINDOW 3 32 32 VTop 2
SYMATTR InstName D10
SYMATTR Value MBRS1100
SYMATTR Description Diode
SYMATTR Type diode
SYMBOL current 208 128 R0
WINDOW 123 0 0 Left 0
WINDOW 39 0 0 Left 0
SYMATTR InstName I1
SYMATTR Value SINE(0 0.92 70)
SYMBOL res 416 112 R0
SYMATTR InstName R6
SYMATTR Value 22
TEXT 72 384 Left 2 !.tran 1s
