Version 4
SHEET 1 2624 680
WIRE 176 48 -112 48
WIRE 224 48 176 48
WIRE 336 48 288 48
WIRE 1216 48 336 48
WIRE 1552 48 1216 48
WIRE -112 128 -112 48
WIRE 176 128 176 48
WIRE 224 128 176 128
WIRE 384 128 288 128
WIRE 1552 128 1552 48
WIRE 1216 192 1216 48
WIRE 1552 224 1552 192
WIRE 1552 352 1552 288
WIRE 1552 352 1328 352
WIRE 1776 352 1552 352
WIRE 1952 352 1776 352
WIRE 2032 352 1952 352
WIRE 2192 352 2096 352
WIRE 2368 352 2192 352
WIRE 2464 352 2368 352
WIRE 1904 368 1872 368
WIRE 1328 384 1328 352
WIRE 2192 400 2192 352
WIRE 2464 400 2464 352
WIRE 1872 432 1872 368
WIRE 1872 432 1776 432
WIRE 2368 448 2368 432
WIRE 2368 448 2320 448
WIRE 224 464 176 464
WIRE 336 464 336 48
WIRE 336 464 288 464
WIRE 1216 464 1216 272
WIRE 1216 464 1120 464
WIRE 1280 464 1216 464
WIRE 1744 464 1664 464
WIRE 2368 464 2368 448
WIRE -112 544 -112 208
WIRE 176 544 176 464
WIRE 176 544 -112 544
WIRE 224 544 176 544
WIRE 384 544 384 128
WIRE 384 544 288 544
WIRE 1120 544 1120 464
WIRE 1120 544 384 544
WIRE 1216 544 1120 544
WIRE 1328 544 1328 480
WIRE 1328 544 1216 544
WIRE 1776 544 1776 496
WIRE 1776 544 1328 544
WIRE 1952 544 1952 528
WIRE 1952 544 1776 544
WIRE 2192 544 2192 464
WIRE 2192 544 1952 544
WIRE 2368 544 2192 544
WIRE 2464 544 2464 480
WIRE 2464 544 2368 544
WIRE 384 608 384 544
WIRE 1664 656 1664 464
WIRE 2320 656 2320 448
WIRE 2320 656 1664 656
FLAG 384 608 0
FLAG 2464 352 Vout
SYMBOL voltage -112 112 R0
WINDOW 123 0 0 Left 0
WINDOW 39 24 124 Left 2
SYMATTR SpiceLine Rser=30.8
SYMATTR InstName V1
SYMATTR Value SINE(0 28.3 70)
SYMBOL LED 1536 128 R0
SYMATTR InstName D2
SYMATTR Value LXML-PWW1-VFBin_D
SYMATTR Description Diode
SYMATTR Type diode
SYMBOL LED 1536 224 R0
SYMATTR InstName D1
SYMATTR Value LXML-PWW1-VFBin_D
SYMATTR Description Diode
SYMATTR Type diode
SYMBOL schottky 224 64 R270
WINDOW 0 32 32 VTop 2
WINDOW 3 0 32 VBottom 2
SYMATTR InstName D3
SYMATTR Value MBRS1100
SYMATTR Description Diode
SYMATTR Type diode
SYMBOL schottky 288 112 R90
WINDOW 0 0 32 VBottom 2
WINDOW 3 32 32 VTop 2
SYMATTR InstName D4
SYMATTR Value MBRS1100
SYMATTR Description Diode
SYMATTR Type diode
SYMBOL schottky 288 528 R90
WINDOW 0 0 32 VBottom 2
WINDOW 3 32 32 VTop 2
SYMATTR InstName D5
SYMATTR Value MBRS1100
SYMATTR Description Diode
SYMATTR Type diode
SYMBOL schottky 224 448 M90
WINDOW 0 0 32 VBottom 2
WINDOW 3 32 32 VTop 2
SYMATTR InstName D6
SYMATTR Value MBRS1100
SYMATTR Description Diode
SYMATTR Type diode
SYMBOL Parts_TCO\\TLV431 1776 464 M0
SYMATTR InstName U1
SYMBOL res 2352 336 R0
SYMATTR InstName R1
SYMATTR Value 20k
SYMBOL res 2352 448 R0
SYMATTR InstName R2
SYMATTR Value 1.2k
SYMBOL res 1792 448 R180
WINDOW 0 36 76 Left 2
WINDOW 3 36 40 Left 2
SYMATTR InstName R4
SYMATTR Value 10k
SYMBOL res 1936 432 R0
SYMATTR InstName R3
SYMATTR Value 1
SYMBOL ZZZ\\MOS\\AO3415 1904 448 M180
SYMATTR InstName U2
SYMBOL cap 2176 400 R0
SYMATTR InstName C1
SYMATTR Value 200µ
SYMBOL load2 2464 400 R0
SYMATTR InstName I1
SYMATTR Value 0.01
SYMBOL nmos 1280 384 R0
SYMATTR InstName M1
SYMATTR Value BSC030N03LS
SYMBOL res 1200 176 R0
SYMATTR InstName R5
SYMATTR Value 10k
SYMBOL res 1200 448 R0
SYMATTR InstName R6
SYMATTR Value 100k
SYMBOL schottky 2032 336 M90
WINDOW 0 0 32 VBottom 2
WINDOW 3 32 32 VTop 2
SYMATTR InstName D7
SYMATTR Value MBRS1100
SYMATTR Description Diode
SYMATTR Type diode
TEXT -248 384 Left 2 !.tran 1s
TEXT 1112 584 Left 2 ;Enable/disable load by opening/short-circuiting NMOS gate
