Version 4
SHEET 1 3088 680
WIRE 640 48 -112 48
WIRE 2176 48 640 48
WIRE -112 128 -112 48
WIRE 640 192 640 48
WIRE 2176 352 2176 48
WIRE 2400 352 2176 352
WIRE 2576 352 2400 352
WIRE 2816 352 2576 352
WIRE 3008 352 2816 352
WIRE 2528 368 2496 368
WIRE 3008 384 3008 352
WIRE 2816 400 2816 352
WIRE 3008 400 3008 384
WIRE 2496 432 2496 368
WIRE 2496 432 2400 432
WIRE 2496 448 2496 432
WIRE 1904 464 1792 464
WIRE 2000 464 1968 464
WIRE 2176 464 2176 432
WIRE 2176 464 2080 464
WIRE 2368 464 2176 464
WIRE -112 544 -112 208
WIRE 544 544 544 464
WIRE 544 544 -112 544
WIRE 752 544 752 480
WIRE 752 544 544 544
WIRE 1792 544 1792 464
WIRE 1792 544 752 544
WIRE 1840 544 1792 544
WIRE 1936 544 1936 496
WIRE 1936 544 1920 544
WIRE 2176 544 1936 544
WIRE 2400 544 2400 496
WIRE 2400 544 2176 544
WIRE 2576 544 2576 528
WIRE 2576 544 2400 544
WIRE 2816 544 2816 464
WIRE 2816 544 2576 544
WIRE 3008 544 3008 464
WIRE 3008 544 2816 544
FLAG 2176 544 0
FLAG 3008 352 Vout
SYMBOL voltage -112 112 R0
WINDOW 123 0 0 Left 0
WINDOW 39 24 124 Left 2
SYMATTR SpiceLine Rser=30.8
SYMATTR InstName V1
SYMATTR Value 0
SYMBOL Parts_TCO\\TLV431 2400 464 M0
SYMATTR InstName U1
SYMBOL res 2160 336 R0
SYMATTR InstName R1
SYMATTR Value 5.1k
SYMBOL res 2192 560 R180
WINDOW 0 36 76 Left 2
WINDOW 3 36 40 Left 2
SYMATTR InstName R2
SYMATTR Value 1.2k
SYMBOL res 2416 448 R180
WINDOW 0 36 76 Left 2
WINDOW 3 36 40 Left 2
SYMATTR InstName R4
SYMATTR Value 10k
SYMBOL res 2560 432 R0
SYMATTR InstName R3
SYMATTR Value 1
SYMBOL ZZZ\\MOS\\AO3415 2528 448 M180
SYMATTR InstName U2
SYMBOL res 1936 528 R90
WINDOW 0 0 56 VBottom 2
WINDOW 3 32 56 VTop 2
SYMATTR InstName R7
SYMATTR Value 4
SYMBOL res 2992 368 R0
SYMATTR InstName R5
SYMATTR Value 1k
SYMBOL Parts_TCO\\TLV431 1936 464 R90
SYMATTR InstName U3
SYMBOL res 2096 448 R90
WINDOW 0 0 56 VBottom 2
WINDOW 3 32 56 VTop 2
SYMATTR InstName R6
SYMATTR Value 1.8k
TEXT -248 384 Left 2 !;tran 1s
TEXT 536 584 Left 2 ;Enable/disable load by opening/short-circuiting NMOS gate
TEXT -248 608 Left 2 !.dc v1 0 60 0.1
