Version 4
SHEET 1 1220 1604
WIRE 592 16 400 16
WIRE 704 16 592 16
WIRE -256 128 -608 128
WIRE -176 128 -256 128
WIRE -64 128 -176 128
WIRE 96 128 16 128
WIRE 400 128 400 16
WIRE 400 128 288 128
WIRE -608 144 -608 128
WIRE 96 224 64 224
WIRE 368 224 288 224
WIRE 432 224 368 224
WIRE 496 224 432 224
WIRE 368 272 368 224
WIRE -608 304 -608 224
WIRE 64 304 64 224
WIRE 704 304 704 96
WIRE 368 416 368 352
WIRE 592 480 592 16
WIRE 592 480 464 480
WIRE 592 512 592 480
WIRE -176 560 -176 128
WIRE -64 560 -176 560
WIRE 96 560 16 560
WIRE 464 560 288 560
WIRE 528 560 464 560
WIRE 592 640 592 608
WIRE 656 640 592 640
WIRE 704 640 656 640
WIRE 96 656 64 656
WIRE 336 656 288 656
WIRE 592 672 592 640
WIRE 64 736 64 656
WIRE 336 736 336 656
WIRE 592 816 592 752
FLAG -608 304 0
FLAG 64 304 0
FLAG 368 416 0
FLAG 704 304 0
FLAG 64 736 0
FLAG 336 736 0
FLAG 592 816 0
FLAG 432 224 OUT1
FLAG 656 640 OUT2
FLAG -256 128 IN
SYMBOL Optos\\PC817A 192 176 R0
SYMATTR InstName U1
SYMBOL voltage -608 128 R0
WINDOW 123 0 0 Left 0
WINDOW 39 0 0 Left 0
SYMATTR InstName V1
SYMATTR Value PULSE(0 5 1n 1n 1n 100u 150u)
SYMBOL res 32 112 R90
WINDOW 0 0 56 VBottom 2
WINDOW 3 32 56 VTop 2
SYMATTR InstName R1
SYMATTR Value 100
SYMBOL res 384 368 R180
WINDOW 0 36 76 Left 2
WINDOW 3 36 40 Left 2
SYMATTR InstName R2
SYMATTR Value 220
SYMBOL voltage 704 0 R0
SYMATTR InstName V2
SYMATTR Value 5
SYMBOL Optos\\PC817A 192 608 R0
SYMATTR InstName U2
SYMBOL res 32 544 R90
WINDOW 0 0 56 VBottom 2
WINDOW 3 32 56 VTop 2
SYMATTR InstName R3
SYMATTR Value 220
SYMBOL pnp 528 608 M180
SYMATTR InstName Q1
SYMATTR Value BC857B
SYMBOL res 448 464 R0
SYMATTR InstName R5
SYMATTR Value 62
SYMBOL res 576 656 R0
SYMATTR InstName R4
SYMATTR Value 1k
TEXT -640 328 Left 2 !.tran 0 200u 90u
TEXT 752 536 Left 2 ;Set I(R5) = Ibe(Q1)
TEXT -320 616 Left 2 ;Smaller resistor = faster switching
