Version 4
SHEET 1 1040 680
WIRE 144 0 -160 0
WIRE 256 0 144 0
WIRE 976 0 784 0
WIRE 784 48 784 0
WIRE 976 48 976 0
WIRE -160 64 -160 0
WIRE 144 112 144 0
WIRE 256 112 256 0
WIRE 976 192 976 128
WIRE 256 224 256 192
WIRE 496 224 256 224
WIRE 752 224 688 224
WIRE 784 224 784 128
WIRE 784 224 752 224
WIRE -160 240 -160 144
WIRE 144 304 144 192
WIRE 256 320 256 304
WIRE 496 320 256 320
WIRE 784 320 688 320
WIRE 256 352 256 320
WIRE 784 384 784 320
WIRE 144 400 144 368
WIRE 192 400 144 400
WIRE 144 464 144 400
WIRE 256 496 256 448
WIRE 256 496 176 496
WIRE 144 592 144 528
WIRE 256 592 256 576
FLAG -160 240 0
FLAG 784 384 0
FLAG 976 192 0
FLAG 256 592 0
FLAG 144 592 0
FLAG 752 224 out
SYMBOL voltage -160 48 R0
WINDOW 123 0 0 Left 0
WINDOW 39 0 0 Left 0
SYMATTR InstName V1
SYMATTR Value 0
SYMBOL TLP293 592 272 R0
SYMATTR InstName U1
SYMBOL res 768 32 R0
SYMATTR InstName R3
SYMATTR Value 3.3k
SYMBOL voltage 976 32 R0
SYMATTR InstName V2
SYMATTR Value 3.3
SYMBOL Parts_TCO\\TLV431 144 496 R0
SYMATTR InstName U2
SYMBOL res 240 480 R0
SYMATTR InstName R1
SYMATTR Value 620
SYMBOL mmbt5551 224 400 R0
WINDOW 39 0 80 Invisible 2
SYMATTR InstName U3
SYMBOL zener 160 368 R180
WINDOW 0 24 64 Left 2
WINDOW 3 24 0 Left 2
SYMATTR InstName D1
SYMATTR Value KDZV13B
SYMATTR Description Diode
SYMATTR Type diode
SYMBOL res 128 96 R0
SYMATTR InstName R2
SYMATTR Value 100k
SYMBOL res 240 96 R0
SYMATTR InstName R4
SYMATTR Value 10k
SYMBOL res 240 208 R0
SYMATTR InstName R5
SYMATTR Value 10k
TEXT -336 -304 Left 2 !.dc v1 0 80
