Version 4
SHEET 1 1040 680
WIRE 48 0 -512 0
WIRE 256 0 48 0
WIRE 976 0 784 0
WIRE 784 48 784 0
WIRE 976 48 976 0
WIRE -512 64 -512 0
WIRE 48 112 48 0
WIRE 256 112 256 0
WIRE 976 192 976 128
WIRE 256 224 256 192
WIRE 496 224 256 224
WIRE 752 224 688 224
WIRE 784 224 784 128
WIRE 784 224 752 224
WIRE -512 240 -512 144
WIRE 48 304 48 192
WIRE 256 320 256 304
WIRE 496 320 256 320
WIRE 784 320 688 320
WIRE 256 352 256 320
WIRE 784 384 784 320
WIRE 48 400 48 368
WIRE 192 400 48 400
WIRE 48 464 48 400
WIRE 256 496 256 448
WIRE 256 496 80 496
WIRE 48 592 48 528
WIRE 256 592 256 576
FLAG -512 240 0
FLAG 784 384 0
FLAG 976 192 0
FLAG 256 592 0
FLAG 48 592 0
FLAG 752 224 out
SYMBOL voltage -512 48 R0
WINDOW 123 0 0 Left 0
WINDOW 39 0 0 Left 0
SYMATTR InstName V1
SYMATTR Value 0
SYMBOL TLP293 592 272 R0
SYMATTR InstName U1
SYMBOL res 768 32 R0
SYMATTR InstName R3
SYMATTR Value 3.3k
SYMBOL voltage 976 32 R0
SYMATTR InstName V2
SYMATTR Value 3.3
SYMBOL Parts_TCO\\TLV431 48 496 R0
SYMATTR InstName U2
SYMBOL res 240 480 R0
SYMATTR InstName R1
SYMATTR Value 620
SYMBOL mmbt5551 224 400 R0
WINDOW 39 0 80 Invisible 2
SYMATTR InstName U3
SYMBOL zener 64 368 R180
WINDOW 0 24 64 Left 2
WINDOW 3 24 0 Left 2
SYMATTR InstName D1
SYMATTR Value KDZV13B
SYMATTR Description Diode
SYMATTR Type diode
SYMBOL res 32 96 R0
SYMATTR InstName R2
SYMATTR Value {2*47k}
SYMBOL res 240 96 R0
SYMATTR InstName R4
SYMATTR Value 10k
SYMBOL res 240 208 R0
SYMATTR InstName R5
SYMATTR Value 10k
TEXT -336 -304 Left 2 !.dc v1 0 80
TEXT -384 192 Left 2 ;0603 only 50V, so need two in series
