Version 4
SHEET 1 880 680
WIRE 128 32 -144 32
WIRE 208 32 128 32
WIRE 416 32 304 32
WIRE 640 32 416 32
WIRE 128 80 128 32
WIRE 416 80 416 32
WIRE -144 112 -144 32
WIRE 640 112 640 32
WIRE 224 128 192 128
WIRE 352 128 224 128
WIRE 128 208 128 176
WIRE 224 208 224 128
WIRE 224 208 128 208
WIRE 288 208 288 80
WIRE 416 208 416 176
WIRE 416 208 288 208
WIRE 128 240 128 208
WIRE 416 240 416 208
WIRE -144 368 -144 192
WIRE 128 368 128 320
WIRE 416 368 416 320
WIRE 640 368 640 192
FLAG -144 368 0
FLAG 128 368 0
FLAG 416 368 0
FLAG 640 368 0
SYMBOL voltage -144 96 R0
WINDOW 123 0 0 Left 0
WINDOW 39 0 0 Left 0
SYMATTR InstName V1
SYMATTR Value 0
SYMBOL pmos 208 80 R270
SYMATTR InstName M1
SYMATTR Value FDC638P
SYMBOL pnp 192 176 R180
SYMATTR InstName Q1
SYMATTR Value BC856B
SYMBOL pnp 352 176 M180
SYMATTR InstName Q2
SYMATTR Value BC856B
SYMBOL res 112 224 R0
SYMATTR InstName R1
SYMATTR Value 68k
SYMBOL res 400 224 R0
SYMATTR InstName R2
SYMATTR Value 22k
SYMBOL voltage 640 96 R0
WINDOW 123 0 0 Left 0
WINDOW 39 24 124 Left 2
SYMATTR InstName V2
SYMATTR Value 5
SYMATTR SpiceLine Rser=100
TEXT -178 392 Left 2 !.dc v1 0 8
TEXT -160 -112 Left 2 ;V1 can not be more negative than V2 - Vbe(Q2) - Vbe(breakdown)of(Q1)
TEXT -120 456 Left 2 ;https://wiki.analog.com/university/courses/alm1k/alm-active-rectifiers
TEXT -120 496 Left 2 ;Vgs voltage of M1 is always smaller than V2.
