Version 4
SHEET 1 1028 1012
WIRE -144 -16 -176 -16
WIRE -64 -16 -144 -16
WIRE 176 -16 32 -16
WIRE 320 -16 176 -16
WIRE 432 -16 320 -16
WIRE 656 -16 432 -16
WIRE 176 64 176 -16
WIRE 320 80 320 64
WIRE 320 80 224 80
WIRE 656 128 656 -16
WIRE 16 160 16 32
WIRE 176 160 16 160
WIRE -176 224 -176 -16
WIRE 16 224 16 160
WIRE 320 224 320 80
WIRE 432 256 432 64
WIRE 432 256 352 256
WIRE 432 272 432 256
WIRE -176 368 -176 304
WIRE 16 368 16 304
WIRE 320 368 320 288
WIRE 432 368 432 352
WIRE 656 368 656 208
WIRE -64 512 -176 512
WIRE 176 512 32 512
WIRE 320 512 176 512
WIRE 432 512 320 512
WIRE 656 512 432 512
WIRE 176 592 176 512
WIRE 320 608 320 592
WIRE 320 608 224 608
WIRE 656 656 656 512
WIRE 16 688 16 560
WIRE 176 688 16 688
WIRE -176 752 -176 512
WIRE 16 752 16 688
WIRE 320 752 320 608
WIRE 432 784 432 592
WIRE 432 784 352 784
WIRE 432 800 432 784
WIRE 656 800 656 736
WIRE 16 896 16 832
WIRE 320 896 320 816
WIRE 432 896 432 880
WIRE -176 992 -176 832
FLAG -176 368 0
FLAG 16 368 0
FLAG 320 368 0
FLAG 432 368 0
FLAG 656 368 0
FLAG -144 -16 protected
FLAG 656 800 0
FLAG 16 896 0
FLAG 320 896 0
FLAG 432 896 0
FLAG -176 992 0
SYMBOL Parts_TCO\\AO3401A -64 32 R270
SYMATTR InstName U1
SYMBOL Parts_TCO\\AO3401A 224 160 R180
SYMATTR InstName U2
SYMBOL Parts_TCO\\TLV431 320 256 R0
SYMATTR InstName U3
SYMBOL res 0 208 R0
SYMATTR InstName R1
SYMATTR Value 100k
SYMBOL res -192 208 R0
SYMATTR InstName R2
SYMATTR Value 100
SYMBOL voltage 656 112 R0
SYMATTR InstName V1
SYMATTR Value 0
SYMBOL res 304 -32 R0
SYMATTR InstName R3
SYMATTR Value 10k
SYMBOL res 416 -32 R0
SYMATTR InstName R5
SYMATTR Value 33k
SYMBOL res 416 256 R0
SYMATTR InstName R6
SYMATTR Value 10k
SYMBOL Parts_TCO\\AO3401A -64 560 R270
SYMATTR InstName U4
SYMBOL Parts_TCO\\AO3401A 224 688 R180
SYMATTR InstName U5
SYMBOL Parts_TCO\\TLV431 320 784 R0
SYMATTR InstName U6
SYMBOL res 0 736 R0
SYMATTR InstName R4
SYMATTR Value 100k
SYMBOL res 640 640 R0
SYMATTR InstName R7
SYMATTR Value 100
SYMBOL voltage -176 736 R0
SYMATTR InstName V2
SYMATTR Value 0
SYMBOL res 304 496 R0
SYMATTR InstName R8
SYMATTR Value 10k
SYMBOL res 416 496 R0
SYMATTR InstName R9
SYMATTR Value 33k
SYMBOL res 416 784 R0
SYMATTR InstName R10
SYMATTR Value 10k
TEXT -440 848 Left 2 !;.dc v1 0 24\n.dc v2 0 5
