Version 4
SHEET 1 1200 680
WIRE 192 16 -128 16
WIRE 256 16 192 16
WIRE 480 16 320 16
WIRE 608 16 480 16
WIRE 720 16 608 16
WIRE 928 16 720 16
WIRE 192 96 192 16
WIRE 256 96 192 96
WIRE 400 96 320 96
WIRE 928 112 928 16
WIRE -128 128 -128 16
WIRE 256 224 192 224
WIRE 480 224 480 16
WIRE 480 224 320 224
WIRE 928 256 928 176
WIRE 608 272 608 16
WIRE -128 304 -128 208
WIRE 192 304 192 224
WIRE 192 304 -128 304
WIRE 256 304 192 304
WIRE 400 304 400 96
WIRE 400 304 320 304
WIRE 480 304 400 304
WIRE 720 304 720 96
WIRE 864 304 720 304
WIRE 720 368 720 304
WIRE 928 400 928 352
WIRE 928 400 752 400
WIRE 928 432 928 400
WIRE 480 544 480 304
WIRE 608 544 608 336
WIRE 608 544 480 544
WIRE 720 544 720 432
WIRE 720 544 608 544
WIRE 928 544 928 512
WIRE 928 544 720 544
FLAG -128 304 0
SYMBOL voltage -128 112 R0
WINDOW 123 0 0 Left 0
WINDOW 39 0 0 Left 0
SYMATTR InstName V1
SYMATTR Value SINE(0 8.5 50 0 0 0 30)
SYMBOL schottky 256 32 R270
WINDOW 0 32 32 VTop 2
WINDOW 3 0 32 VBottom 2
SYMATTR InstName D1
SYMATTR Value BAT54
SYMATTR Description Diode
SYMATTR Type diode
SYMBOL schottky 320 80 R90
WINDOW 0 0 32 VBottom 2
WINDOW 3 32 32 VTop 2
SYMATTR InstName D2
SYMATTR Value BAT54
SYMATTR Description Diode
SYMATTR Type diode
SYMBOL schottky 256 240 R270
WINDOW 0 32 32 VTop 2
WINDOW 3 0 32 VBottom 2
SYMATTR InstName D3
SYMATTR Value BAT54
SYMATTR Description Diode
SYMATTR Type diode
SYMBOL schottky 320 288 R90
WINDOW 0 0 32 VBottom 2
WINDOW 3 32 32 VTop 2
SYMATTR InstName D4
SYMATTR Value BAT54
SYMATTR Description Diode
SYMATTR Type diode
SYMBOL LED 912 112 R0
SYMATTR InstName D5
SYMATTR Value NSCW100
SYMATTR Description Diode
SYMATTR Type diode
SYMBOL cap 592 272 R0
SYMATTR InstName C1
SYMATTR Value 10µ
SYMBOL Parts_TCO\\TLV431 720 400 R0
SYMATTR InstName U1
SYMBOL npn 864 256 R0
SYMATTR InstName Q1
SYMATTR Value BC846B
SYMBOL res 912 416 R0
SYMATTR InstName R1
SYMATTR Value 510
SYMBOL res 704 0 R0
SYMATTR InstName R2
SYMATTR Value 10k
TEXT -72 328 Left 2 !.tran 1s
