Version 4
SHEET 1 880 864
WIRE 64 32 -96 32
WIRE 192 32 64 32
WIRE 192 64 192 32
WIRE -96 80 -96 32
WIRE 192 144 192 128
WIRE 64 176 64 32
WIRE 192 224 192 208
WIRE -96 256 -96 160
WIRE 192 432 192 288
WIRE 64 480 64 256
WIRE 128 480 64 480
WIRE 64 560 64 480
WIRE 192 608 192 528
WIRE 192 608 128 608
WIRE 192 656 192 608
WIRE 64 784 64 656
WIRE 192 784 192 736
FLAG 192 784 0
FLAG 64 784 0
FLAG -96 256 0
SYMBOL LED 176 64 R0
SYMATTR InstName D1
SYMATTR Value NSSWS108T
SYMATTR Description Diode
SYMATTR Type diode
SYMBOL npn 128 432 R0
SYMATTR InstName Q1
SYMATTR Value 2N3904
SYMBOL npn 128 560 M0
SYMATTR InstName Q2
SYMATTR Value 2N3904
SYMBOL res 176 640 R0
SYMATTR InstName R1
SYMATTR Value 33
SYMBOL res 48 160 R0
SYMATTR InstName R2
SYMATTR Value 10k
SYMBOL voltage -96 64 R0
SYMATTR InstName V1
SYMATTR Value 12
SYMBOL LED 176 144 R0
SYMATTR InstName D2
SYMATTR Value NSSWS108T
SYMATTR Description Diode
SYMATTR Type diode
SYMBOL LED 176 224 R0
SYMATTR InstName D3
SYMATTR Value NSSWS108T
SYMATTR Description Diode
SYMATTR Type diode
TEXT -130 808 Left 2 !;op
TEXT -112 848 Left 2 !.dc V1 9 15
