Version 4
SHEET 1 1576 980
WIRE 320 -608 -544 -608
WIRE 864 -608 384 -608
WIRE 1200 -608 864 -608
WIRE 1200 -464 1200 -608
WIRE 1200 -368 1200 -400
WIRE 1200 -272 1200 -304
WIRE 864 -192 864 -608
WIRE 1200 -176 1200 -208
WIRE 1200 -80 1200 -112
WIRE -544 -48 -544 -608
WIRE 1200 16 1200 -16
WIRE 1200 160 1200 80
WIRE 864 208 864 -112
WIRE 1136 208 864 208
WIRE 864 288 864 208
WIRE 1040 288 864 288
WIRE 1200 288 1200 256
WIRE 1200 288 1120 288
WIRE 1200 336 1200 288
WIRE -544 816 -544 32
WIRE 1200 816 1200 416
WIRE 1200 816 -544 816
WIRE 1200 960 1200 816
FLAG 1200 960 0
SYMBOL voltage -544 -64 R0
WINDOW 123 0 0 Left 0
WINDOW 39 0 0 Left 0
SYMATTR InstName V1
SYMATTR Value 24
SYMBOL schottky 320 -592 R270
WINDOW 0 32 32 VTop 2
WINDOW 3 0 32 VBottom 2
SYMATTR InstName D1
SYMATTR Value 1N5819
SYMATTR Description Diode
SYMATTR Type diode
SYMBOL LED 1216 16 M0
SYMATTR InstName D2
SYMATTR Value NSCW100
SYMATTR Description Diode
SYMATTR Type diode
SYMBOL LED 1216 -80 M0
SYMATTR InstName D3
SYMATTR Value NSCW100
SYMATTR Description Diode
SYMATTR Type diode
SYMBOL LED 1216 -176 M0
SYMATTR InstName D4
SYMATTR Value NSCW100
SYMATTR Description Diode
SYMATTR Type diode
SYMBOL LED 1216 -272 M0
SYMATTR InstName D5
SYMATTR Value NSCW100
SYMATTR Description Diode
SYMATTR Type diode
SYMBOL LED 1216 -368 M0
SYMATTR InstName D6
SYMATTR Value NSCW100
SYMATTR Description Diode
SYMATTR Type diode
SYMBOL LED 1216 -464 M0
SYMATTR InstName D7
SYMATTR Value NSCW100
SYMATTR Description Diode
SYMATTR Type diode
SYMBOL npn 1136 160 R0
SYMATTR InstName Q1
SYMATTR Value 2N3904
SYMBOL res 1184 320 R0
SYMATTR InstName R1
SYMATTR Value 2400
SYMBOL res 848 -208 R0
SYMATTR InstName R2
SYMATTR Value 47k
SYMBOL res 1136 272 R90
WINDOW 0 0 56 VBottom 2
WINDOW 3 32 56 VTop 2
SYMATTR InstName R3
SYMATTR Value 47k
TEXT -488 152 Left 2 !.tran 1s
TEXT 656 -696 Left 2 ;2mA on half-wave\n5mA on full-wave
