Version 4
SHEET 1 1908 680
WIRE 208 -240 80 -240
WIRE 464 -240 208 -240
WIRE 688 -240 464 -240
WIRE 1088 -240 688 -240
WIRE 1328 -240 1088 -240
WIRE 1536 -240 1328 -240
WIRE 1328 -224 1328 -240
WIRE 1536 -224 1536 -240
WIRE 464 -128 464 -176
WIRE 688 -128 688 -176
WIRE 1328 -112 1328 -160
WIRE 1536 -112 1536 -160
WIRE 1088 -96 1088 -240
WIRE 1088 0 1088 -16
WIRE 1088 0 1008 0
WIRE 1088 32 1088 0
WIRE 1328 64 1328 -48
WIRE 1536 64 1536 -48
WIRE 80 96 80 -240
WIRE 208 96 208 -240
WIRE 1200 112 1088 112
WIRE 1264 112 1200 112
WIRE 1472 112 1264 112
WIRE 464 144 464 -64
WIRE 688 144 688 -64
WIRE 208 192 208 176
WIRE 336 192 208 192
WIRE 400 192 336 192
WIRE 624 192 400 192
WIRE 80 208 80 176
WIRE 336 240 336 192
WIRE 1088 240 1088 112
WIRE 1088 240 1072 240
WIRE 208 288 208 272
WIRE 272 288 208 288
WIRE 1008 288 1008 0
WIRE 208 304 208 288
WIRE 464 304 464 240
WIRE 688 304 688 240
WIRE 1200 304 1200 112
WIRE 1072 352 1072 336
WIRE 1136 352 1072 352
WIRE 1072 368 1072 352
WIRE 1328 368 1328 160
WIRE 1536 368 1536 160
WIRE 208 416 208 384
WIRE 336 416 336 336
WIRE 464 416 464 384
WIRE 688 416 688 384
WIRE 1072 480 1072 448
WIRE 1200 480 1200 400
WIRE 1328 480 1328 448
WIRE 1536 480 1536 448
FLAG 80 208 0
FLAG 208 416 0
FLAG 336 416 0
FLAG 464 416 0
FLAG 688 416 0
FLAG 1072 480 0
FLAG 1200 480 0
FLAG 1328 480 0
FLAG 1536 480 0
SYMBOL voltage 80 80 R0
WINDOW 123 0 0 Left 0
WINDOW 39 0 0 Left 0
SYMATTR InstName V1
SYMATTR Value 0
SYMBOL res 192 80 R0
SYMATTR InstName R1
SYMATTR Value 10k
SYMBOL res 192 176 R0
SYMATTR InstName R2
SYMATTR Value 10k
SYMBOL res 192 288 R0
SYMATTR InstName R3
SYMATTR Value 10k
SYMBOL npn 272 240 R0
SYMATTR InstName Q1
SYMATTR Value 2N3904
SYMBOL npn 400 144 R0
SYMATTR InstName Q2
SYMATTR Value 2N3904
SYMBOL res 448 288 R0
SYMATTR InstName R4
SYMATTR Value 33
SYMBOL LED 448 -128 R0
SYMATTR InstName D2
SYMATTR Value NSCW100
SYMATTR Description Diode
SYMATTR Type diode
SYMBOL LED 448 -240 R0
SYMATTR InstName D3
SYMATTR Value NSCW100
SYMATTR Description Diode
SYMATTR Type diode
SYMBOL npn 624 144 R0
SYMATTR InstName Q3
SYMATTR Value 2N3904
SYMBOL res 672 288 R0
SYMATTR InstName R5
SYMATTR Value 33
SYMBOL LED 672 -128 R0
SYMATTR InstName D5
SYMATTR Value NSCW100
SYMATTR Description Diode
SYMATTR Type diode
SYMBOL LED 672 -240 R0
SYMATTR InstName D6
SYMATTR Value NSCW100
SYMATTR Description Diode
SYMATTR Type diode
SYMBOL res 1072 -112 R0
SYMATTR InstName R6
SYMATTR Value 1k
SYMBOL res 1056 352 R0
SYMATTR InstName R8
SYMATTR Value 10k
SYMBOL npn 1136 304 R0
SYMATTR InstName Q4
SYMATTR Value 2N3904
SYMBOL npn 1264 64 R0
SYMATTR InstName Q5
SYMATTR Value 2N3904
SYMBOL res 1312 352 R0
SYMATTR InstName R9
SYMATTR Value 29
SYMBOL LED 1312 -112 R0
SYMATTR InstName D1
SYMATTR Value NSCW100
SYMATTR Description Diode
SYMATTR Type diode
SYMBOL LED 1312 -224 R0
SYMATTR InstName D4
SYMATTR Value NSCW100
SYMATTR Description Diode
SYMATTR Type diode
SYMBOL npn 1008 240 R0
SYMATTR InstName Q6
SYMATTR Value 2N3904
SYMBOL npn 1472 64 R0
SYMATTR InstName Q7
SYMATTR Value 2N3904
SYMBOL res 1520 352 R0
SYMATTR InstName R7
SYMATTR Value 29
SYMBOL LED 1520 -112 R0
SYMATTR InstName D7
SYMATTR Value NSCW100
SYMATTR Description Diode
SYMATTR Type diode
SYMBOL LED 1520 -224 R0
SYMATTR InstName D8
SYMATTR Value NSCW100
SYMATTR Description Diode
SYMATTR Type diode
SYMBOL res 1072 16 R0
SYMATTR InstName R10
SYMATTR Value 4
TEXT 48 440 Left 2 !.dc V1 10 15
TEXT 1024 584 Left 2 ;Zero-gain amplifier around Q6, keeps base-collector voltage of Q4 constant.\nThat is an improvement over using R2.
