Version 4
SHEET 1 880 680
FLAG 96 240 0
FLAG 96 176 VCC
SYMBOL Parts_TCO\\TS391 96 144 R0
SYMATTR InstName U1
