Version 4
SHEET 1 880 680
WIRE 160 -192 160 -224
WIRE 384 -192 160 -192
WIRE 384 -144 384 -192
WIRE 160 -96 160 -112
WIRE 320 -96 160 -96
WIRE -32 -80 -176 -80
WIRE -176 -32 -176 -80
WIRE 384 -32 384 -48
WIRE 384 -32 64 -32
WIRE -32 -16 -32 -80
WIRE 64 -16 64 -32
WIRE 160 -16 160 -96
WIRE 384 64 384 -32
WIRE 160 96 160 64
WIRE -176 112 -176 48
WIRE -32 128 -32 64
WIRE 64 128 64 64
WIRE 64 128 -32 128
WIRE 128 128 64 128
WIRE 64 160 64 128
WIRE 384 160 384 64
WIRE 160 240 160 160
WIRE 160 240 64 240
WIRE 384 240 160 240
FLAG 160 -224 VCC
FLAG -176 112 0
FLAG 160 240 0
FLAG 176 480 0
FLAG 176 416 VCC
FLAG 384 64 Vout
SYMBOL voltage -176 -48 R0
SYMATTR InstName V1
SYMBOL Parts_TCO\\TLV431 160 128 M0
SYMATTR InstName U1
SYMBOL res 144 -32 R0
SYMATTR InstName R1
SYMBOL res 48 144 R0
SYMATTR InstName R2
SYMBOL pnp 320 -48 M180
SYMATTR InstName Q1
SYMBOL res -48 -32 R0
SYMATTR InstName R3
SYMBOL res 144 -208 R0
SYMATTR InstName R4
SYMBOL res 368 144 R0
SYMATTR InstName R5
SYMATTR Value Rload
SYMBOL res 48 -32 R0
SYMATTR InstName R6
SYMBOL Parts_TCO\\TS391 176 384 R0
SYMATTR InstName U2
