Version 4
SHEET 1 1824 680
WIRE -64 96 -144 96
WIRE 32 96 -64 96
WIRE 272 96 32 96
WIRE 464 96 368 96
WIRE 592 96 464 96
WIRE 624 96 592 96
WIRE 32 112 32 96
WIRE 272 112 272 96
WIRE 368 112 368 96
WIRE 464 112 464 96
WIRE -144 176 -144 96
WIRE 624 176 624 96
WIRE 160 192 32 192
WIRE 32 256 32 192
WIRE 464 288 464 192
WIRE 464 288 64 288
WIRE 320 304 320 176
WIRE 464 320 464 288
WIRE 160 352 160 272
WIRE 256 352 160 352
WIRE 160 368 160 352
WIRE -144 432 -144 256
WIRE 624 432 624 256
WIRE 32 448 32 320
WIRE 160 448 32 448
WIRE 320 448 320 400
WIRE 320 448 160 448
WIRE 464 448 464 400
WIRE 464 448 320 448
WIRE 320 464 320 448
WIRE 320 560 320 544
FLAG -144 432 0
FLAG 624 432 0
FLAG 320 560 0
FLAG 592 96 OUT
FLAG -64 96 IN
SYMBOL res 448 96 R0
SYMATTR InstName R1
SYMATTR Value 100k
SYMBOL res 448 304 R0
SYMATTR InstName R2
SYMATTR Value 33k
SYMBOL res 16 96 R0
SYMATTR InstName R3
SYMATTR Value 10k
SYMBOL Parts_TCO\\TLV431 32 288 R0
SYMATTR InstName U1
SYMBOL voltage -144 160 R0
WINDOW 123 0 0 Left 0
WINDOW 39 0 0 Left 0
SYMATTR InstName V1
SYMATTR Value 5
SYMBOL res 608 160 R0
SYMATTR InstName R4
SYMATTR Value 10
SYMBOL pnp 368 176 M270
SYMATTR InstName Q1
SYMATTR Value 2N2907
SYMBOL res 304 448 R0
SYMATTR InstName R6
SYMATTR Value 0.01
SYMBOL npn 256 304 R0
SYMATTR InstName Q2
SYMATTR Value BC846B
SYMBOL res 144 352 R0
SYMATTR InstName R5
SYMATTR Value 10k
SYMBOL res 144 176 R0
SYMATTR InstName R7
SYMATTR Value 33k
TEXT -376 224 Left 2 !.dc v1 0 15 0.1
TEXT 296 -24 Left 2 ;MMBT2907A-TP
TEXT -200 -128 Left 2 ;P(Q1) < 250mW when Vin < 10V
TEXT -200 -96 Left 2 ;VIN > 10V will not cause damage, so 5V TVS (Vlcamp = 9V) can be used as protection
TEXT -200 -160 Left 2 ;Dropout : 5Vout when Vin > 5.3V at 500mA out, 413mV dropout
TEXT -200 -64 Left 2 ;500mA out, 400mW in Q1 -> VINmax = 5.3V
