Version 4
SHEET 1 1216 680
WIRE 320 -160 -16 -160
WIRE 592 -160 320 -160
WIRE 592 -96 592 -160
WIRE -16 32 -16 -160
WIRE 320 32 320 -160
WIRE 256 80 192 80
WIRE 592 96 592 -16
WIRE 320 144 320 128
WIRE 528 144 320 144
WIRE 320 176 320 144
WIRE 192 288 192 80
WIRE 320 288 320 256
WIRE 320 288 192 288
WIRE 592 304 592 192
WIRE 320 320 320 288
WIRE 592 464 592 384
WIRE 320 576 320 400
FLAG 320 576 0
FLAG -16 112 0
FLAG 592 464 0
SYMBOL voltage -16 16 R0
WINDOW 123 0 0 Left 0
WINDOW 39 0 0 Left 0
SYMATTR InstName V1
SYMATTR Value 0
SYMBOL pnp 256 128 M180
SYMATTR InstName Q1
SYMATTR Value BC857B
SYMBOL pnp 528 192 M180
SYMATTR InstName Q2
SYMATTR Value BC857B
SYMBOL res 304 160 R0
SYMATTR InstName R1
SYMATTR Value 220
SYMBOL res 304 304 R0
SYMATTR InstName R2
SYMATTR Value 22k
SYMBOL res 576 -112 R0
SYMATTR InstName R3
SYMATTR Value 1k
SYMBOL res 576 288 R0
SYMATTR InstName R4
SYMATTR Value 100k
TEXT -16 -232 Left 2 ;https://wiki.analog.com/university/courses/electronics/text/chapter-11
TEXT -50 600 Left 2 !.dc V1 0 5 0.1
TEXT -584 224 Left 2 ;Zero gain amplifier (R1 and Q1) stabilize power supply variations.
TEXT 672 -64 Left 2 ;Widlar current source permits smaller resistors
TEXT -264 328 Left 2 ;V(R1) should be Vt (=26mV) around set point
