Version 4
SHEET 1 932 680
WIRE -48 16 -128 16
WIRE 112 16 -48 16
WIRE 480 16 208 16
WIRE 608 16 480 16
WIRE 688 16 608 16
WIRE 800 16 688 16
WIRE 848 16 800 16
WIRE 608 48 608 16
WIRE 688 48 688 16
WIRE 848 48 848 16
WIRE 480 64 480 16
WIRE 192 144 192 64
WIRE -128 160 -128 16
WIRE 480 224 480 144
WIRE 480 224 240 224
WIRE 480 256 480 224
WIRE -128 384 -128 240
WIRE 608 384 608 112
WIRE 688 384 688 112
WIRE 848 384 848 128
WIRE 192 400 192 240
WIRE 416 400 192 400
WIRE 480 400 480 336
WIRE 480 400 416 400
WIRE 416 528 416 480
FLAG 608 384 0
FLAG 688 384 0
FLAG 848 384 0
FLAG -128 384 0
FLAG 416 528 0
FLAG -48 16 IN
FLAG 800 16 OUT2
SYMBOL Parts_TCO\\FDV301N 240 144 M0
SYMATTR InstName U1
SYMBOL res 464 48 R0
SYMATTR InstName R2
SYMATTR Value 3.3Meg
SYMBOL res 464 240 R0
SYMATTR InstName R3
SYMATTR Value 820k
SYMBOL cap 592 48 R0
SYMATTR InstName C1
SYMATTR Value 10µ
SYMBOL cap 672 48 R0
SYMATTR InstName C2
SYMATTR Value 100n
SYMBOL res 832 32 R0
SYMATTR InstName R4
SYMATTR Value 100
SYMBOL voltage -128 144 R0
WINDOW 123 0 0 Left 0
WINDOW 39 0 0 Left 0
SYMATTR InstName V1
SYMATTR Value 5
SYMBOL Parts_TCO\\BSS169 112 64 R270
SYMATTR InstName U3
SYMBOL res 400 384 R0
SYMATTR InstName R1
SYMATTR Value 0.01
TEXT -160 408 Left 2 !.dc v1 0 10 0.1
