Version 4
SHEET 1 880 680
WIRE 96 0 32 0
WIRE 160 0 96 0
WIRE 320 0 256 0
WIRE 432 0 320 0
WIRE 512 0 432 0
WIRE 592 0 512 0
WIRE 320 48 320 0
WIRE 432 48 432 0
WIRE 32 128 32 0
WIRE 240 144 240 48
WIRE 320 144 320 128
WIRE 320 144 240 144
WIRE 592 144 592 0
WIRE 240 160 240 144
WIRE 432 192 432 128
WIRE 432 192 272 192
WIRE 432 208 432 192
WIRE 32 320 32 208
WIRE 240 320 240 224
WIRE 432 320 432 288
WIRE 592 320 592 224
FLAG 32 320 0
FLAG 240 320 0
FLAG 432 320 0
FLAG 592 320 0
FLAG 96 0 IN
FLAG 512 0 OUT
SYMBOL voltage 32 112 R0
WINDOW 123 0 0 Left 0
WINDOW 39 0 0 Left 0
SYMATTR InstName V1
SYMATTR Value 0
SYMBOL Parts_TCO\\TLV431 240 192 R0
SYMATTR InstName U1
SYMBOL Parts_TCO\\BSS169 160 48 R270
SYMATTR InstName U2
SYMBOL res 304 32 R0
SYMATTR InstName R1
SYMATTR Value 10k
SYMBOL res 416 32 R0
SYMATTR InstName R2
SYMATTR Value 100k
SYMBOL res 416 192 R0
SYMATTR InstName R3
SYMATTR Value 33k
SYMBOL current 592 144 R0
WINDOW 123 0 0 Left 0
WINDOW 39 0 0 Left 0
SYMATTR InstName I1
SYMATTR Value 5m
TEXT 0 344 Left 2 !.dc v1 0 20 0.1
TEXT -304 32 Left 2 ;Low current, low dropout
