Version 4
SHEET 1 1824 680
WIRE -304 96 -384 96
WIRE -80 96 -304 96
WIRE 272 96 -80 96
WIRE 464 96 368 96
WIRE 688 96 464 96
WIRE 848 96 688 96
WIRE 880 96 848 96
WIRE -80 112 -80 96
WIRE 272 112 272 96
WIRE 368 112 368 96
WIRE 464 112 464 96
WIRE -384 176 -384 96
WIRE 48 192 -80 192
WIRE 144 192 48 192
WIRE 144 208 144 192
WIRE 688 224 688 96
WIRE -80 256 -80 192
WIRE 464 288 464 192
WIRE 464 288 -48 288
WIRE 320 304 320 176
WIRE 880 304 880 96
WIRE 1024 304 928 304
WIRE 464 320 464 288
WIRE 928 320 928 304
WIRE 48 352 48 272
WIRE 144 352 144 272
WIRE 144 352 48 352
WIRE 256 352 144 352
WIRE 48 368 48 352
WIRE 928 400 928 368
WIRE 1024 400 1024 384
WIRE 1024 400 928 400
WIRE -384 432 -384 256
WIRE 688 432 688 288
WIRE 880 432 880 384
WIRE -80 448 -80 320
WIRE 48 448 -80 448
WIRE 320 448 320 400
WIRE 320 448 48 448
WIRE 464 448 464 400
WIRE 464 448 320 448
WIRE 320 464 320 448
WIRE 320 560 320 544
FLAG -384 432 0
FLAG 880 432 0
FLAG 320 560 0
FLAG 848 96 OUT
FLAG -304 96 IN
FLAG 688 432 0
SYMBOL res 448 96 R0
SYMATTR InstName R1
SYMATTR Value 100k
SYMBOL res 448 304 R0
SYMATTR InstName R2
SYMATTR Value 33k
SYMBOL res -96 96 R0
SYMATTR InstName R3
SYMATTR Value 10k
SYMBOL TLV431 -80 288 R0
SYMATTR InstName U1
SYMBOL voltage -384 160 R0
WINDOW 123 0 0 Left 0
WINDOW 39 24 124 Left 2
SYMATTR SpiceLine Rser=0.1
SYMATTR InstName V1
SYMATTR Value 5.5
SYMBOL pnp 368 176 M270
SYMATTR InstName Q1
SYMATTR Value BC807-40
SYMBOL res 304 448 R0
SYMATTR InstName R6
SYMATTR Value 0.01
SYMBOL npn 256 304 R0
SYMATTR InstName Q2
SYMATTR Value BC846B
SYMBOL res 32 352 R0
SYMATTR InstName R5
SYMATTR Value 10k
SYMBOL res 32 176 R0
SYMATTR InstName R7
SYMATTR Value 33k
SYMBOL sw 880 400 R180
SYMATTR InstName S1
SYMATTR Value MYSW
SYMBOL voltage 1024 288 R0
WINDOW 123 0 0 Left 0
WINDOW 39 0 0 Left 0
SYMATTR InstName V2
SYMATTR Value PULSE(0 5 1m 1n 1n 1m 2m)
SYMBOL cap 672 224 R0
SYMATTR InstName C1
SYMATTR Value 10µ
SYMBOL cap 128 208 R0
SYMATTR InstName C2
SYMATTR Value 220p
TEXT -616 224 Left 2 !;dc v1 0 15 0.1
TEXT 296 -24 Left 2 ;MMBT2907A-TP
TEXT -200 -128 Left 2 ;P(Q1) < 250mW when Vin < 10V
TEXT -200 -96 Left 2 ;VIN > 10V will not cause damage, so 5V TVS (Vlcamp = 9V) can be used as protection
TEXT -200 -160 Left 2 ;Dropout : 5Vout when Vin > 5.3V at 500mA out, 413mV dropout
TEXT -200 -64 Left 2 ;500mA out, 400mW in Q1 -> VINmax = 5.3V
TEXT 864 496 Left 2 !.model MYSW SW(Ron=10 Roff=100 Vt=2 Vh=0.2)
TEXT -600 256 Left 2 !.tran 10m
