Version 4
SHEET 1 880 680
WIRE 128 128 0 128
WIRE 480 128 224 128
WIRE 560 128 480 128
WIRE 560 176 560 128
WIRE 0 192 0 128
WIRE 208 208 208 176
WIRE 0 368 0 272
WIRE 160 368 160 272
WIRE 560 368 560 256
FLAG 560 368 0
FLAG 160 368 0
FLAG 0 368 0
FLAG 480 128 2VOUT
SYMBOL Parts_TCO\\BSS169 128 176 R270
SYMATTR InstName U1
SYMBOL res 544 160 R0
SYMATTR InstName R1
SYMATTR Value 100k
SYMBOL voltage 0 176 R0
WINDOW 123 0 0 Left 0
WINDOW 39 0 0 Left 0
SYMATTR InstName V1
SYMATTR Value 0
SYMBOL npn 256 208 R90
SYMATTR InstName Q1
SYMATTR Value BC846B
TEXT -34 344 Left 2 !.dc V1 0 5 0.1
