Version 4
SHEET 1 1620 708
WIRE 128 -32 -112 -32
WIRE 592 -32 128 -32
WIRE -112 0 -112 -32
WIRE 128 0 128 -32
WIRE 592 0 592 -32
WIRE 128 112 128 80
WIRE 592 112 592 80
WIRE -112 144 -112 80
WIRE 288 160 192 160
WIRE 528 160 288 160
WIRE 128 240 128 208
WIRE 288 240 288 160
WIRE 288 240 128 240
WIRE 128 272 128 240
WIRE 464 320 192 320
WIRE 592 320 592 208
WIRE 592 320 464 320
WIRE 288 352 288 240
WIRE 592 384 592 320
WIRE 128 464 128 368
WIRE 288 464 288 432
WIRE 288 464 128 464
WIRE 128 512 128 464
WIRE 592 512 592 448
WIRE 128 640 128 592
FLAG -112 144 0
FLAG 128 640 0
FLAG 592 512 0
FLAG 464 320 out
SYMBOL res 112 -16 R0
SYMATTR InstName R1
SYMATTR Value 220
SYMBOL res 576 -16 R0
SYMATTR InstName R2
SYMATTR Value 220
SYMBOL res 272 336 R0
SYMATTR InstName R3
SYMATTR Value 220k
SYMBOL res 112 496 R0
SYMATTR InstName R4
SYMATTR Value 2.2k
SYMBOL pnp 192 208 R180
SYMATTR InstName Q1
SYMATTR Value 2N3906
SYMBOL pnp 528 208 M180
SYMATTR InstName Q2
SYMATTR Value 2N3906
SYMBOL npn 192 272 M0
SYMATTR InstName Q3
SYMATTR Value 2N3904
SYMBOL zener 608 448 R180
WINDOW 0 24 64 Left 2
WINDOW 3 24 0 Left 2
SYMATTR InstName D1
SYMATTR Value PH_BZX384-B6V2
SYMATTR Description Diode
SYMATTR Type diode
SYMBOL voltage -112 -16 R0
WINDOW 123 0 0 Left 0
WINDOW 39 0 0 Left 0
SYMATTR InstName V1
SYMATTR Value 0
TEXT -144 664 Left 2 !.dc v1 10 30\n.temp 0 10 20 30 40
TEXT 624 416 Left 2 ;select 6V2 temperature compensated zener \nthese have internal zener in series with forward diode.
TEXT 232 568 Left 2 ;https://wiki.analog.com/university/courses/electronics/text/chapter-14\nhttps://sound-au.com/appnotes/an008.htm
