Version 4
SHEET 1 2836 1124
WIRE 64 -96 -160 -96
WIRE 192 -96 64 -96
WIRE 656 -96 528 -96
WIRE 880 -96 656 -96
WIRE 144 -80 128 -80
WIRE 592 -80 576 -80
WIRE -1360 32 -1360 -48
WIRE 128 32 128 -80
WIRE 432 32 128 32
WIRE 592 48 592 -80
WIRE 592 48 304 48
WIRE 192 128 192 0
WIRE 304 128 304 48
WIRE 304 128 192 128
WIRE 320 128 304 128
WIRE 432 128 432 32
WIRE 432 128 400 128
WIRE 528 128 528 0
WIRE 528 128 432 128
WIRE -1360 176 -1360 112
WIRE 192 176 192 128
WIRE 528 176 528 128
WIRE 80 224 -432 224
WIRE 128 224 80 224
WIRE 640 224 592 224
WIRE 880 224 640 224
WIRE 128 256 128 224
WIRE 144 256 128 256
WIRE 592 256 592 224
WIRE 592 256 576 256
WIRE -432 272 -432 224
WIRE 880 272 880 224
WIRE 80 304 80 224
WIRE 640 304 640 224
WIRE 880 384 880 352
WIRE 880 384 736 384
WIRE -432 400 -432 352
WIRE 880 416 880 384
WIRE 80 512 80 384
WIRE 192 512 192 272
WIRE 368 512 192 512
WIRE 528 512 528 272
WIRE 528 512 368 512
WIRE 640 512 640 384
WIRE 432 624 400 624
WIRE 672 624 512 624
WIRE 400 640 400 624
WIRE 512 704 512 624
WIRE 544 704 512 704
WIRE 720 720 608 720
WIRE 752 720 752 624
WIRE 752 720 720 720
WIRE 368 736 368 512
WIRE 544 736 368 736
WIRE 368 768 368 736
WIRE 576 848 576 752
FLAG 80 512 0
FLAG 64 -96 VMOTOR
FLAG 640 512 0
FLAG 656 -96 VMOTOR
FLAG -432 400 0
FLAG 880 416 0
FLAG -1360 176 0
FLAG -1360 -48 VMOTOR
FLAG 368 848 0
FLAG 576 848 0
FLAG 576 688 VMOTOR
FLAG 400 640 0
FLAG 720 720 VSNS
SYMBOL res 64 400 M180
WINDOW 0 36 76 Left 2
WINDOW 3 36 40 Left 2
SYMATTR InstName R3
SYMATTR Value 10k
SYMBOL res 656 400 R180
WINDOW 0 36 76 Left 2
WINDOW 3 36 40 Left 2
SYMATTR InstName R7
SYMATTR Value 10k
SYMBOL res 416 112 R90
WINDOW 0 0 56 VBottom 2
WINDOW 3 32 56 VTop 2
SYMATTR InstName R11
SYMATTR Value 10
SYMBOL voltage -432 256 R0
WINDOW 123 0 0 Left 0
WINDOW 39 0 0 Left 0
SYMATTR InstName V1
SYMATTR Value PULSE(0 3.3 0 1n 1n 25u 50µ)
SYMBOL voltage 880 256 R0
WINDOW 123 0 0 Left 0
WINDOW 39 0 0 Left 0
SYMATTR InstName V2
SYMATTR Value PULSE(0 3.3 25u 1n 1n 25u 50u)
SYMBOL voltage -1360 16 R0
WINDOW 123 0 0 Left 0
WINDOW 39 24 44 Left 2
SYMATTR SpiceLine Rser=0.1
SYMATTR InstName V3
SYMATTR Value 8.4
SYMBOL res 352 752 R0
SYMATTR InstName R12
SYMATTR Value 0.5
SYMBOL ZZZ\\OpAmp\\LM321LV 576 656 R0
SYMATTR InstName U1
SYMBOL res 528 608 R90
WINDOW 0 0 56 VBottom 2
WINDOW 3 32 56 VTop 2
SYMATTR InstName R13
SYMATTR Value 1k
SYMBOL res 768 608 R90
WINDOW 0 0 56 VBottom 2
WINDOW 3 32 56 VTop 2
SYMATTR InstName R14
SYMATTR Value 3k
SYMBOL nmos 144 176 R0
SYMATTR InstName M1
SYMATTR Value AO6408
SYMBOL nmos 576 176 M0
SYMATTR InstName M2
SYMATTR Value AO6408
SYMBOL ZZZ\\MOS\\AO3415 576 0 R180
SYMATTR InstName U2
SYMBOL ZZZ\\MOS\\AO3415 144 0 M180
SYMATTR InstName U3
TEXT -1376 240 Left 2 !.tran 200u
TEXT 1888 -224 Left 2 ;VMOTOR can be much higher than Vlogic
TEXT 1896 -168 Left 2 ;Many transistors, requires lots of PCB area.\nLCSC might provide very cheap transistors that can make this design worthwhile.
