Version 4
SHEET 1 948 744
WIRE 0 -192 -560 -192
WIRE 160 -192 0 -192
WIRE 688 -192 160 -192
WIRE -560 -144 -560 -192
WIRE 0 -144 0 -192
WIRE 160 -144 160 -192
WIRE 688 -144 688 -192
WIRE -288 -64 -416 -64
WIRE -560 -16 -560 -64
WIRE -416 -16 -416 -64
WIRE -288 -16 -288 -64
WIRE 688 -16 688 -64
WIRE 752 -16 688 -16
WIRE 880 -16 832 -16
WIRE 688 64 688 -16
WIRE -416 112 -416 64
WIRE 0 112 0 -64
WIRE 48 112 0 112
WIRE 160 112 160 -64
WIRE 160 112 112 112
WIRE 288 112 160 112
WIRE 624 112 288 112
WIRE 624 144 624 112
WIRE 640 144 624 144
WIRE -288 176 -288 64
WIRE 688 224 688 160
WIRE 80 256 -240 256
WIRE -288 320 -288 272
WIRE 0 320 0 112
WIRE 880 352 880 -16
WIRE 880 352 832 352
WIRE 80 400 80 256
WIRE 80 400 48 400
WIRE 112 400 80 400
WIRE 880 400 880 352
WIRE 880 400 112 400
WIRE 0 464 0 416
WIRE 48 544 -480 544
WIRE 112 544 112 400
WIRE -480 576 -480 544
WIRE -480 704 -480 656
FLAG -560 -16 0
FLAG 0 464 0
FLAG 688 224 0
FLAG -480 704 0
FLAG 0 112 CQ2
FLAG 288 112 BQ1
FLAG 832 352 BQ2
FLAG 880 480 0
FLAG 160 192 0
FLAG -288 320 0
FLAG -416 112 0
SYMBOL res -16 -160 R0
SYMATTR InstName R1
SYMATTR Value 1k
SYMBOL res 144 -160 R0
SYMATTR InstName R2
SYMATTR Value 1Meg
SYMBOL res 672 -160 R0
SYMATTR InstName R3
SYMATTR Value 1k
SYMBOL cap 112 96 R90
WINDOW 0 0 32 VBottom 2
WINDOW 3 32 32 VTop 2
SYMATTR InstName C1
SYMATTR Value 33µ
SYMBOL voltage -560 -160 R0
SYMATTR InstName V1
SYMATTR Value 4.5
SYMBOL voltage -480 560 R0
WINDOW 123 0 0 Left 0
WINDOW 39 24 124 Left 2
SYMATTR SpiceLine Rser=500
SYMATTR InstName V2
SYMATTR Value PULSE(0 5 1s 1n 1n 1s 120s)
SYMBOL schottky 48 560 R270
WINDOW 0 32 32 VTop 2
WINDOW 3 0 32 VBottom 2
SYMATTR InstName D1
SYMATTR Value 1N5819
SYMATTR Description Diode
SYMATTR Type diode
SYMBOL res 864 384 R0
SYMATTR InstName R5
SYMATTR Value 68k
SYMBOL res 144 96 R0
SYMATTR InstName R6
SYMATTR Value 1Meg
SYMBOL res -304 -32 R0
SYMATTR InstName Rload
SYMATTR Value 1k
SYMBOL nmos 640 64 R0
SYMATTR InstName M1
SYMATTR Value 2N7002
SYMBOL nmos 48 320 M0
SYMATTR InstName M2
SYMATTR Value 2N7002
SYMBOL nmos -240 176 M0
SYMATTR InstName M3
SYMATTR Value 2N7002
SYMBOL voltage -416 -32 R0
SYMATTR InstName V3
SYMATTR Value 12
SYMBOL res 848 -32 R90
WINDOW 0 0 56 VBottom 2
WINDOW 3 32 56 VTop 2
SYMATTR InstName R4
SYMATTR Value 1k
TEXT -528 728 Left 2 !.tran 120s
TEXT -224 -304 Left 2 ;For long timers (>10s), RC-current becomes so small, that the base current of a BJT has a\nhuge impact.  An NMOS transistor has very little gate current.
