Version 4
SHEET 1 880 680
WIRE -224 -160 -224 -208
WIRE -224 -32 -224 -80
WIRE -224 -32 -576 -32
WIRE -224 0 -224 -32
WIRE -576 112 -576 -32
WIRE -448 112 -576 112
WIRE -224 128 -224 80
WIRE -224 128 -352 128
WIRE -32 128 -224 128
WIRE 16 128 -32 128
WIRE -448 144 -576 144
WIRE -224 176 -224 128
WIRE -576 240 -576 144
WIRE -224 320 -224 256
FLAG -944 -16 VCC
FLAG -224 -208 VCC
FLAG -224 400 0
FLAG -576 240 0
FLAG -944 64 0
FLAG -32 128 out
SYMBOL AutoGenerated\\LM4041_N_ADJC1P233 -400 128 M0
WINDOW 3 12 -95 Top 2
WINDOW 39 -81 -122 Top 2
SYMATTR InstName U1
SYMBOL voltage -944 -32 R0
WINDOW 123 0 0 Left 0
WINDOW 39 0 0 Left 0
SYMATTR InstName V1
SYMATTR Value SINE(5 100m 50)
SYMBOL res -240 -16 R0
SYMATTR InstName R1
SYMATTR Value 13K
SYMBOL res -240 304 R0
SYMATTR InstName R2
SYMATTR Value {Rthermistor}
SYMBOL res -240 -176 R0
SYMATTR InstName R3
SYMATTR Value 1K
SYMBOL res -240 160 R0
SYMATTR InstName R4
SYMATTR Value 27k
TEXT -800 264 Left 2 !;op
TEXT -800 288 Left 2 !.step param Rthermistor list 1.5K 10K
TEXT -232 448 Left 2 ;Thermistor is 1.5K at 85°C
TEXT -1096 368 Left 2 ;Advantage of LM4041 is that thermistor can be ground referenced.\nSo only one trace is needed to connect it.
TEXT -808 216 Left 2 !.tran 100m
TEXT -1280 432 Left 2 ;The LM4041 functions as regulated current source.  This allows for cancelling out power \nsupply fluctuations at the output.\nR3 should be chosen such that at least 100µA flows into V+ of the LM4041 in all cases.\nR1 sets the current : I = 1.24V/R1\nR4 provides an extra offset voltage (2.7V in this case) for setting the trigger voltage.\nR2 is the NTC thermistor.  Check the maximum allowed current (100µA is common) to avoid self-heating.
TEXT -40 152 Left 2 ;Connect to a 3V power supply monitor (e.g. TLV803)
